<additional>
  <tlLogic id="universal_program" programID="universal_program" offset="0" type="static">
    <phase duration="100"  state="gGrgrrgGrgrr"/>
    <phase duration="100"  state="grrgGrgrrgGr"/>
    <phase duration="100"  state="grGgrrgrGgrr"/>
    <phase duration="100"  state="grrgrGgrrgrG"/>
    <phase duration="100"  state="gGGgrrgrrgrr"/>
    <phase duration="100"  state="grrgGGgrrgrr"/>
    <phase duration="100"  state="grrgrrgGGgrr"/>
    <phase duration="100"  state="grrgrrgrrgGG"/>

    <phase duration="100"  state="gyrgrrgyrgrr" next="1"/>
    <phase duration="100"  state="gyrgrrgyrgrr" next="2"/>
    <phase duration="100"  state="gyrgrrgyrgrr" next="3"/>
    <phase duration="100"  state="gGrgrrgyrgrr" next="4"/>
    <phase duration="100"  state="gyrgrrgyrgrr" next="5"/>
    <phase duration="100"  state="gyrgrrgGrgrr" next="6"/>
    <phase duration="100"  state="gyrgrrgyrgrr" next="7"/>

    <phase duration="100"  state="grrgyrgrrgyr" next="0"/>
    <phase duration="100"  state="grrgyrgrrgyr" next="2"/>
    <phase duration="100"  state="grrgyrgrrgyr" next="3"/>
    <phase duration="100"  state="grrgyrgrrgyr" next="4"/>
    <phase duration="100"  state="grrgGrgrrgyr" next="5"/>
    <phase duration="100"  state="grrgyrgrrgyr" next="6"/>
    <phase duration="100"  state="grrgyrgrrgGr" next="7"/>

    <phase duration="100"  state="grygrrgrygrr" next="0"/>
    <phase duration="100"  state="grygrrgrygrr" next="1"/>
    <phase duration="100"  state="grygrrgrygrr" next="3"/>
    <phase duration="100"  state="grGgrrgrygrr" next="4"/>
    <phase duration="100"  state="grygrrgrygrr" next="5"/>
    <phase duration="100"  state="grygrrgrGgrr" next="6"/>
    <phase duration="100"  state="grygrrgrygrr" next="7"/>

    <phase duration="100"  state="grrgrygrrgry" next="0"/>
    <phase duration="100"  state="grrgrygrrgry" next="1"/>
    <phase duration="100"  state="grrgrygrrgry" next="2"/>
    <phase duration="100"  state="grrgrygrrgry" next="4"/>
    <phase duration="100"  state="grrgrGgrrgry" next="5"/>
    <phase duration="100"  state="grrgrygrrgry" next="6"/>
    <phase duration="100"  state="grrgrygrrgrG" next="7"/>

    <phase duration="100"  state="gGygrrgrrgrr" next="0"/>
    <phase duration="100"  state="gyygrrgrrgrr" next="1"/>
    <phase duration="100"  state="gyGgrrgrrgrr" next="2"/>
    <phase duration="100"  state="gyygrrgrrgrr" next="3"/>
    <phase duration="100"  state="gyygrrgrrgrr" next="5"/>
    <phase duration="100"  state="gyygrrgrrgrr" next="6"/>
    <phase duration="100"  state="gyygrrgrrgrr" next="7"/>

    <phase duration="100"  state="grrgyygrrgrr" next="0"/>
    <phase duration="100"  state="grrgGygrrgrr" next="1"/>
    <phase duration="100"  state="grrgyygrrgrr" next="2"/>
    <phase duration="100"  state="grrgyGgrrgrr" next="3"/>
    <phase duration="100"  state="grrgyygrrgrr" next="4"/>
    <phase duration="100"  state="grrgyygrrgrr" next="6"/>
    <phase duration="100"  state="grrgyygrrgrr" next="7"/>

    <phase duration="100"  state="grrgrrgGygrr" next="0"/>
    <phase duration="100"  state="grrgrrgyygrr" next="1"/>
    <phase duration="100"  state="grrgrrgyGgrr" next="2"/>
    <phase duration="100"  state="grrgrrgyygrr" next="3"/>
    <phase duration="100"  state="grrgrrgyygrr" next="4"/>
    <phase duration="100"  state="grrgrrgyygrr" next="6"/>
    <phase duration="100"  state="grrgrrgyygrr" next="7"/>

    <phase duration="100"  state="grrgrrgrrgyy" next="0"/>
    <phase duration="100"  state="grrgrrgrrgGy" next="1"/>
    <phase duration="100"  state="grrgrrgrrgyy" next="2"/>
    <phase duration="100"  state="grrgrrgrrgyG" next="3"/>
    <phase duration="100"  state="grrgrrgrrgyy" next="4"/>
    <phase duration="100"  state="grrgrrgrrgyy" next="5"/>
    <phase duration="100"  state="grrgrrgrrgyy" next="6"/>
  </tlLogic>
</additional>