<?xml version="1.0" encoding="UTF-8"?>

<!-- generated on 2023-04-23 00:06:58 by Eclipse SUMO netedit Version 1.16.0
<configuration xmlns:xsi="http://www.w3.org/2001/XMLSchema-instance" xsi:noNamespaceSchemaLocation="http://sumo.dlr.de/xsd/netconvertConfiguration.xsd">

    <input>
        <route_file-files value_proj="C:\Users\Metro\PycharmProjects\When-it-comes-to-multiagent-signal-control-what-do-we-think-of\envs\Metr11.rou.xml"/>
        <sumo-net_file-file value_proj="C:\Users\Metro\PycharmProjects\When-it-comes-to-multiagent-signal-control-what-do-we-think-of\envs\corrdor.net_file.xml"/>
    </input>

    <output>
        <output-file value_proj="C:\Users\Metro\PycharmProjects\When-it-comes-to-multiagent-signal-control-what-do-we-think-of\envs\corrdor.net_file.xml"/>
    </output>

    <processing>
        <geometry.min-radius.fix.railways value_proj="false"/>
        <geometry.max-grade.fix value_proj="false"/>
        <offset.disable-normalization value_proj="true"/>
        <lefthand value_proj="0"/>
    </processing>

    <junctions>
        <no-turnarounds value_proj="true"/>
        <junctions.corner-detail value_proj="5"/>
        <junctions.limit-turn-speed value_proj="5.50"/>
        <rectangular-lane-cut value_proj="0"/>
    </junctions>

    <pedestrian>
        <walkingareas value_proj="0"/>
    </pedestrian>

</configuration>
-->

<net version="1.16" junctionCornerDetail="5" limitTurnSpeed="5.50" xmlns:xsi="http://www.w3.org/2001/XMLSchema-instance" xsi:noNamespaceSchemaLocation="http://sumo.dlr.de/xsd/net_file.xsd">

    <location netOffset="-218164.12,-3351952.18" convBoundary="1488.64,711.96,4968.05,2450.77" origBoundary="119.994735,30.266873,120.146602,30.296545" projParameter="+proj=utm +zone=51 +ellps=WGS84 +datum=WGS84 +units=m +no_defs"/>

    <type id="highway.bridleway" priority="1" numLanes="1" speed="2.78" allow="pedestrian" oneway="1" width="2.00"/>
    <type id="highway.bus_guideway" priority="1" numLanes="1" speed="27.78" allow="bus" oneway="1"/>
    <type id="highway.cycleway" priority="1" numLanes="1" speed="8.33" allow="bicycle" oneway="0" width="1.00"/>
    <type id="highway.footway" priority="1" numLanes="1" speed="2.78" allow="pedestrian" oneway="1" width="2.00"/>
    <type id="highway.ford" priority="1" numLanes="1" speed="2.78" allow="army" oneway="0"/>
    <type id="highway.living_street" priority="2" numLanes="1" speed="2.78" disallow="tram rail_urban rail rail_electric rail_fast ship" oneway="0"/>
    <type id="highway.motorway" priority="14" numLanes="2" speed="39.44" allow="private emergency authority army vip passenger hov taxi bus coach delivery truck trailer motorcycle evehicle custom1 custom2" oneway="1"/>
    <type id="highway.motorway_link" priority="9" numLanes="1" speed="22.22" allow="private emergency authority army vip passenger hov taxi bus coach delivery truck trailer motorcycle evehicle custom1 custom2" oneway="1"/>
    <type id="highway.path" priority="1" numLanes="1" speed="2.78" allow="pedestrian bicycle" oneway="0" width="2.00"/>
    <type id="highway.pedestrian" priority="1" numLanes="1" speed="2.78" allow="pedestrian" oneway="1" width="2.00"/>
    <type id="highway.primary" priority="12" numLanes="2" speed="27.78" disallow="tram rail_urban rail rail_electric rail_fast ship" oneway="0"/>
    <type id="highway.primary_link" priority="7" numLanes="1" speed="22.22" disallow="tram rail_urban rail rail_electric rail_fast ship" oneway="0"/>
    <type id="highway.raceway" priority="15" numLanes="2" speed="83.33" allow="vip" oneway="0"/>
    <type id="highway.residential" priority="3" numLanes="1" speed="13.89" disallow="tram rail_urban rail rail_electric rail_fast ship" oneway="0"/>
    <type id="highway.secondary" priority="11" numLanes="1" speed="27.78" disallow="tram rail_urban rail rail_electric rail_fast ship" oneway="0"/>
    <type id="highway.secondary_link" priority="6" numLanes="1" speed="22.22" disallow="tram rail_urban rail rail_electric rail_fast ship" oneway="0"/>
    <type id="highway.service" priority="1" numLanes="1" speed="5.56" allow="pedestrian delivery bicycle" oneway="0"/>
    <type id="highway.stairs" priority="1" numLanes="1" speed="1.39" allow="pedestrian" oneway="1" width="2.00"/>
    <type id="highway.step" priority="1" numLanes="1" speed="1.39" allow="pedestrian" oneway="1" width="2.00"/>
    <type id="highway.steps" priority="1" numLanes="1" speed="1.39" allow="pedestrian" oneway="1" width="2.00"/>
    <type id="highway.tertiary" priority="10" numLanes="1" speed="22.22" disallow="tram rail_urban rail rail_electric rail_fast ship" oneway="0"/>
    <type id="highway.tertiary_link" priority="5" numLanes="1" speed="22.22" disallow="tram rail_urban rail rail_electric rail_fast ship" oneway="0"/>
    <type id="highway.track" priority="1" numLanes="1" speed="5.56" allow="pedestrian motorcycle moped bicycle" oneway="0"/>
    <type id="highway.trunk" priority="13" numLanes="2" speed="27.78" disallow="pedestrian bicycle tram rail_urban rail rail_electric rail_fast ship" oneway="0"/>
    <type id="highway.trunk_link" priority="8" numLanes="1" speed="22.22" disallow="pedestrian bicycle tram rail_urban rail rail_electric rail_fast ship" oneway="0"/>
    <type id="highway.unclassified" priority="4" numLanes="1" speed="13.89" disallow="tram rail_urban rail rail_electric rail_fast ship" oneway="0"/>
    <type id="highway.unsurfaced" priority="1" numLanes="1" speed="8.33" disallow="tram rail_urban rail rail_electric rail_fast ship" oneway="0"/>
    <type id="railway.highspeed" priority="21" numLanes="1" speed="69.44" allow="rail_fast" oneway="1"/>
    <type id="railway.light_rail" priority="19" numLanes="1" speed="27.78" allow="rail_urban" oneway="1"/>
    <type id="railway.preserved" priority="16" numLanes="1" speed="27.78" allow="rail" oneway="1"/>
    <type id="railway.rail" priority="20" numLanes="1" speed="44.44" allow="rail" oneway="1"/>
    <type id="railway.subway" priority="18" numLanes="1" speed="27.78" allow="rail_urban" oneway="1"/>
    <type id="railway.tram" priority="17" numLanes="1" speed="13.89" allow="tram" oneway="1"/>

    <edge id=":cluster_26197704_3382408997_0" function="internal">
        <lane id=":cluster_26197704_3382408997_0_0" index="0" disallow="tram rail_urban rail rail_electric rail_fast ship" speed="6.63" length="9.38" shape="4752.11,1243.26 4749.60,1243.51 4747.76,1244.53 4746.60,1246.33 4746.10,1248.90"/>
    </edge>
    <edge id=":cluster_26197704_3382408997_1" function="internal">
        <lane id=":cluster_26197704_3382408997_1_0" index="0" disallow="tram rail_urban rail rail_electric rail_fast ship" speed="27.78" length="28.45" shape="4752.45,1240.07 4724.03,1239.02"/>
    </edge>
    <edge id=":cluster_26197704_3382408997_2" function="internal">
        <lane id=":cluster_26197704_3382408997_2_0" index="0" disallow="tram rail_urban rail rail_electric rail_fast ship" speed="10.87" length="28.69" shape="4752.80,1236.89 4745.03,1235.37 4739.82,1231.69 4737.16,1225.86 4737.05,1217.87"/>
    </edge>
    <edge id=":cluster_26197704_3382408997_3" function="internal">
        <lane id=":cluster_26197704_3382408997_3_0" index="0" disallow="tram rail_urban rail rail_electric rail_fast ship" speed="7.12" length="11.19" shape="4746.57,1219.09 4746.77,1221.59 4748.08,1223.51 4750.50,1224.83 4754.04,1225.56"/>
    </edge>
    <edge id=":cluster_26197704_3382408997_4" function="internal">
        <lane id=":cluster_26197704_3382408997_4_0" index="0" disallow="tram rail_urban rail rail_electric rail_fast ship" speed="22.22" length="30.08" shape="4743.40,1218.69 4742.63,1227.55 4742.74,1233.67 4743.06,1239.81 4742.91,1248.73"/>
    </edge>
    <edge id=":cluster_26197704_3382408997_5" function="internal">
        <lane id=":cluster_26197704_3382408997_5_0" index="0" disallow="tram rail_urban rail rail_electric rail_fast ship" speed="11.18" length="26.49" shape="4740.23,1218.28 4738.35,1226.09 4735.04,1231.62 4730.30,1234.86 4724.11,1235.82"/>
    </edge>
    <edge id=":cluster_26197704_3382408997_6" function="internal">
        <lane id=":cluster_26197704_3382408997_6_0" index="0" disallow="tram rail_urban rail rail_electric rail_fast ship" speed="6.99" length="9.87" shape="4724.44,1223.28 4726.87,1222.97 4728.72,1221.83 4730.00,1219.86 4730.70,1217.05"/>
    </edge>
    <edge id=":cluster_26197704_3382408997_7" function="internal">
        <lane id=":cluster_26197704_3382408997_7_0" index="0" disallow="tram rail_urban rail rail_electric rail_fast ship" speed="27.78" length="29.42" shape="4724.35,1226.48 4753.69,1228.74"/>
    </edge>
    <edge id=":cluster_26197704_3382408997_8" function="internal">
        <lane id=":cluster_26197704_3382408997_8_0" index="0" disallow="tram rail_urban rail rail_electric rail_fast ship" speed="10.96" length="27.88" shape="4724.27,1229.68 4731.40,1231.10 4736.35,1234.72 4739.12,1240.54 4739.71,1248.55"/>
    </edge>
    <edge id=":cluster_26197704_3382408997_9" function="internal">
        <lane id=":cluster_26197704_3382408997_9_0" index="0" disallow="tram rail_urban rail rail_electric rail_fast ship" speed="6.66" length="9.72" shape="4730.13,1248.03 4729.85,1245.55 4728.73,1243.76 4726.76,1242.65 4723.94,1242.22"/>
    </edge>
    <edge id=":cluster_26197704_3382408997_10" function="internal">
        <lane id=":cluster_26197704_3382408997_10_0" index="0" disallow="tram rail_urban rail rail_electric rail_fast ship" speed="22.22" length="30.75" shape="4733.32,1248.20 4733.88,1217.46"/>
    </edge>
    <edge id=":cluster_26197704_3382408997_11" function="internal">
        <lane id=":cluster_26197704_3382408997_11_0" index="0" disallow="tram rail_urban rail rail_electric rail_fast ship" speed="10.68" length="27.12" shape="4736.52,1248.38 4737.94,1240.54 4741.22,1235.19 4746.35,1232.31 4753.34,1231.93"/>
    </edge>
    <edge id=":cluster_262909297_3382408993_3382408994_3382408995_0" function="internal">
        <lane id=":cluster_262909297_3382408993_3382408994_3382408995_0_0" index="0" disallow="tram rail_urban rail rail_electric rail_fast ship" speed="6.84" length="9.86" shape="4329.25,1233.74 4326.76,1234.10 4324.94,1235.29 4323.79,1237.29 4323.31,1240.11"/>
    </edge>
    <edge id=":cluster_262909297_3382408993_3382408994_3382408995_1" function="internal">
        <lane id=":cluster_262909297_3382408993_3382408994_3382408995_1_0" index="0" disallow="tram rail_urban rail rail_electric rail_fast ship" speed="27.78" length="30.08" shape="4329.48,1230.54 4299.40,1230.35"/>
    </edge>
    <edge id=":cluster_262909297_3382408993_3382408994_3382408995_2" function="internal">
        <lane id=":cluster_262909297_3382408993_3382408994_3382408995_2_0" index="0" disallow="tram rail_urban rail rail_electric rail_fast ship" speed="11.11" length="28.03" shape="4329.70,1227.34 4323.15,1226.02 4318.48,1222.28 4315.69,1216.13 4314.77,1207.57"/>
    </edge>
    <edge id=":cluster_262909297_3382408993_3382408994_3382408995_3" function="internal">
        <lane id=":cluster_262909297_3382408993_3382408994_3382408995_3_0" index="0" disallow="tram rail_urban rail rail_electric rail_fast ship" speed="6.84" length="9.60" shape="4324.92,1207.60 4325.26,1210.20 4326.33,1212.12 4328.13,1213.36 4330.66,1213.91"/>
    </edge>
    <edge id=":cluster_262909297_3382408993_3382408994_3382408995_4" function="internal">
        <lane id=":cluster_262909297_3382408993_3382408994_3382408995_4_0" index="0" disallow="tram rail_urban rail rail_electric rail_fast ship" speed="27.78" length="32.42" shape="4321.72,1207.59 4320.11,1239.96"/>
    </edge>
    <edge id=":cluster_262909297_3382408993_3382408994_3382408995_5" function="internal">
        <lane id=":cluster_262909297_3382408993_3382408994_3382408995_5_0" index="0" disallow="tram rail_urban rail rail_electric rail_fast ship" speed="11.64" length="31.17" shape="4318.52,1207.58 4317.27,1216.18 4313.67,1222.31 4307.72,1225.97 4299.41,1227.15"/>
    </edge>
    <edge id=":cluster_262909297_3382408993_3382408994_3382408995_6" function="internal">
        <lane id=":cluster_262909297_3382408993_3382408994_3382408995_6_0" index="0" disallow="tram rail_urban rail rail_electric rail_fast ship" speed="7.25" length="11.73" shape="4299.49,1212.92 4303.37,1212.69 4306.15,1211.71 4307.81,1210.00 4308.37,1207.55"/>
    </edge>
    <edge id=":cluster_262909297_3382408993_3382408994_3382408995_7" function="internal">
        <lane id=":cluster_262909297_3382408993_3382408994_3382408995_7_0" index="0" disallow="tram rail_urban rail rail_electric rail_fast ship" speed="27.78" length="30.97" shape="4299.47,1216.12 4330.43,1217.10"/>
    </edge>
    <edge id=":cluster_262909297_3382408993_3382408994_3382408995_8" function="internal">
        <lane id=":cluster_262909297_3382408993_3382408994_3382408995_8_0" index="0" disallow="tram rail_urban rail rail_electric rail_fast ship" speed="11.50" length="30.79" shape="4299.46,1219.32 4307.44,1220.82 4313.02,1224.73 4316.17,1231.07 4316.91,1239.81"/>
    </edge>
    <edge id=":cluster_262909297_3382408993_3382408994_3382408995_9" function="internal">
        <lane id=":cluster_262909297_3382408993_3382408994_3382408995_9_0" index="0" disallow="tram rail_urban rail rail_electric rail_fast ship" speed="6.45" length="9.05" shape="4304.84,1239.25 4304.57,1236.77 4303.57,1234.99 4301.84,1233.92 4299.38,1233.55"/>
    </edge>
    <edge id=":cluster_262909297_3382408993_3382408994_3382408995_10" function="internal">
        <lane id=":cluster_262909297_3382408993_3382408994_3382408995_10_0" index="0" disallow="tram rail_urban rail rail_electric rail_fast ship" speed="27.78" length="32.03" shape="4308.03,1239.40 4311.57,1207.56"/>
    </edge>
    <edge id=":cluster_262909297_3382408993_3382408994_3382408995_11" function="internal">
        <lane id=":cluster_262909297_3382408993_3382408994_3382408995_11_0" index="0" disallow="tram rail_urban rail rail_electric rail_fast ship" speed="11.46" length="31.06" shape="4311.23,1239.55 4312.67,1230.64 4316.31,1224.46 4322.16,1221.01 4330.20,1220.29"/>
    </edge>
    <edge id=":cluster_26496834_26496835_26496836_26496837_0" function="internal">
        <lane id=":cluster_26496834_26496835_26496836_26496837_0_0" index="0" disallow="tram rail_urban rail rail_electric rail_fast ship" speed="8.74" length="15.31" shape="3466.68,1240.67 3462.63,1241.28 3459.56,1243.02 3457.49,1245.89 3456.40,1249.88"/>
    </edge>
    <edge id=":cluster_26496834_26496835_26496836_26496837_1" function="internal">
        <lane id=":cluster_26496834_26496835_26496836_26496837_1_0" index="0" disallow="tram rail_urban rail rail_electric rail_fast ship" speed="27.78" length="35.67" shape="3466.65,1237.47 3430.99,1238.12"/>
    </edge>
    <edge id=":cluster_26496834_26496835_26496836_26496837_2" function="internal">
        <lane id=":cluster_26496834_26496835_26496836_26496837_2_0" index="0" disallow="tram rail_urban rail rail_electric rail_fast ship" speed="11.18" length="34.01" shape="3466.62,1234.27 3456.80,1233.15 3450.50,1229.42 3447.74,1222.85 3448.58,1213.21"/>
    </edge>
    <edge id=":cluster_26496834_26496835_26496836_26496837_3" function="internal">
        <lane id=":cluster_26496834_26496835_26496836_26496837_3_0" index="0" disallow="tram rail_urban rail rail_electric rail_fast ship" speed="6.08" length="9.08" shape="3461.79,1216.33 3461.60,1218.90 3462.32,1220.73 3463.95,1221.82 3466.50,1222.16"/>
    </edge>
    <edge id=":cluster_26496834_26496835_26496836_26496837_4" function="internal">
        <lane id=":cluster_26496834_26496835_26496836_26496837_4_0" index="0" disallow="tram rail_urban rail rail_electric rail_fast ship" speed="27.78" length="34.33" shape="3458.68,1215.60 3456.73,1224.98 3455.46,1232.45 3454.44,1239.96 3453.22,1249.47"/>
    </edge>
    <edge id=":cluster_26496834_26496835_26496836_26496837_5" function="internal">
        <lane id=":cluster_26496834_26496835_26496836_26496837_5_0" index="0" disallow="tram rail_urban rail rail_electric rail_fast ship" speed="13.22" length="34.79" shape="3455.56,1214.86 3452.32,1223.87 3447.16,1230.22 3440.08,1233.90 3431.09,1234.92"/>
    </edge>
    <edge id=":cluster_26496834_26496835_26496836_26496837_6" function="internal">
        <lane id=":cluster_26496834_26496835_26496836_26496837_6_0" index="0" disallow="tram rail_urban rail rail_electric rail_fast ship" speed="9.47" length="16.54" shape="3431.49,1222.42 3435.30,1221.72 3438.38,1219.71 3440.73,1216.38 3442.35,1211.75"/>
    </edge>
    <edge id=":cluster_26496834_26496835_26496836_26496837_7" function="internal">
        <lane id=":cluster_26496834_26496835_26496836_26496837_7_0" index="0" disallow="tram rail_urban rail rail_electric rail_fast ship" speed="27.78" length="35.15" shape="3431.39,1225.62 3466.53,1225.36"/>
    </edge>
    <edge id=":cluster_26496834_26496835_26496836_26496837_8" function="internal">
        <lane id=":cluster_26496834_26496835_26496836_26496837_8_0" index="0" disallow="tram rail_urban rail rail_electric rail_fast ship" speed="11.44" length="33.33" shape="3431.28,1228.82 3440.96,1229.78 3447.16,1233.18 3450.11,1239.46 3450.05,1249.06"/>
    </edge>
    <edge id=":cluster_26496834_26496835_26496836_26496837_9" function="internal">
        <lane id=":cluster_26496834_26496835_26496836_26496837_9_0" index="0" disallow="tram rail_urban rail rail_electric rail_fast ship" speed="6.34" length="9.06" shape="3435.95,1247.22 3435.89,1244.71 3435.02,1242.88 3433.35,1241.75 3430.88,1241.32"/>
    </edge>
    <edge id=":cluster_26496834_26496835_26496836_26496837_10" function="internal">
        <lane id=":cluster_26496834_26496835_26496836_26496837_10_0" index="0" disallow="tram rail_urban rail rail_electric rail_fast ship" speed="27.78" length="35.75" shape="3439.13,1247.64 3440.36,1237.91 3441.65,1229.95 3443.26,1222.04 3445.46,1212.48"/>
    </edge>
    <edge id=":cluster_26496834_26496835_26496836_26496837_11" function="internal">
        <lane id=":cluster_26496834_26496835_26496836_26496837_11_0" index="0" disallow="tram rail_urban rail rail_electric rail_fast ship" speed="12.84" length="34.56" shape="3442.30,1248.05 3444.66,1239.60 3449.49,1233.54 3456.79,1229.86 3466.56,1228.56"/>
    </edge>
    <edge id=":cluster_27127956_27127967_332556586_332556588_0" function="internal">
        <lane id=":cluster_27127956_27127967_332556586_332556588_0_0" index="0" disallow="tram rail_urban rail rail_electric rail_fast ship" speed="8.32" length="13.81" shape="2487.95,1227.58 2484.50,1228.07 2481.84,1229.67 2479.98,1232.36 2478.92,1236.16"/>
    </edge>
    <edge id=":cluster_27127956_27127967_332556586_332556588_1" function="internal">
        <lane id=":cluster_27127956_27127967_332556586_332556588_1_0" index="0" disallow="tram rail_urban rail rail_electric rail_fast ship" speed="27.78" length="31.52" shape="2488.01,1224.38 2456.49,1224.41"/>
    </edge>
    <edge id=":cluster_27127956_27127967_332556586_332556588_2" function="internal">
        <lane id=":cluster_27127956_27127967_332556586_332556588_2_0" index="0" disallow="tram rail_urban rail rail_electric rail_fast ship" speed="10.44" length="27.53" shape="2488.06,1221.18 2479.91,1220.04 2474.44,1216.90 2471.66,1211.76 2471.56,1204.62"/>
    </edge>
    <edge id=":cluster_27127956_27127967_332556586_332556588_3" function="internal">
        <lane id=":cluster_27127956_27127967_332556586_332556588_3_0" index="0" disallow="tram rail_urban rail rail_electric rail_fast ship" speed="6.24" length="9.05" shape="2483.24,1206.40 2483.23,1208.93 2484.05,1210.75 2485.71,1211.86 2488.21,1212.27"/>
    </edge>
    <edge id=":cluster_27127956_27127967_332556586_332556588_4" function="internal">
        <lane id=":cluster_27127956_27127967_332556586_332556588_4_0" index="0" disallow="tram rail_urban rail rail_electric rail_fast ship" speed="27.78" length="30.07" shape="2480.08,1205.92 2475.75,1235.67"/>
    </edge>
    <edge id=":cluster_27127956_27127967_332556586_332556588_5" function="internal">
        <lane id=":cluster_27127956_27127967_332556586_332556588_5_0" index="0" disallow="tram rail_urban rail rail_electric rail_fast ship" speed="11.75" length="28.58" shape="2476.92,1205.44 2474.74,1212.45 2470.62,1217.41 2464.55,1220.33 2456.54,1221.21"/>
    </edge>
    <edge id=":cluster_27127956_27127967_332556586_332556588_6" function="internal">
        <lane id=":cluster_27127956_27127967_332556586_332556588_6_0" index="0" disallow="tram rail_urban rail rail_electric rail_fast ship" speed="8.13" length="13.14" shape="2456.69,1211.89 2459.95,1211.41 2462.46,1209.88 2464.22,1207.30 2465.23,1203.65"/>
    </edge>
    <edge id=":cluster_27127956_27127967_332556586_332556588_7" function="internal">
        <lane id=":cluster_27127956_27127967_332556586_332556588_7_0" index="0" disallow="tram rail_urban rail rail_electric rail_fast ship" speed="27.78" length="31.51" shape="2456.64,1215.09 2488.15,1215.47"/>
    </edge>
    <edge id=":cluster_27127956_27127967_332556586_332556588_8" function="internal">
        <lane id=":cluster_27127956_27127967_332556586_332556588_8_0" index="0" disallow="tram rail_urban rail rail_electric rail_fast ship" speed="10.42" length="27.44" shape="2456.59,1218.29 2464.55,1219.44 2469.87,1222.64 2472.55,1227.89 2472.59,1235.19"/>
    </edge>
    <edge id=":cluster_27127956_27127967_332556586_332556588_9" function="internal">
        <lane id=":cluster_27127956_27127967_332556586_332556588_9_0" index="0" disallow="tram rail_urban rail rail_electric rail_fast ship" speed="6.24" length="9.05" shape="2461.41,1233.47 2461.42,1230.94 2460.59,1229.12 2458.93,1228.01 2456.44,1227.61"/>
    </edge>
    <edge id=":cluster_27127956_27127967_332556586_332556588_10" function="internal">
        <lane id=":cluster_27127956_27127967_332556586_332556588_10_0" index="0" disallow="tram rail_urban rail rail_electric rail_fast ship" speed="27.78" length="30.06" shape="2464.57,1233.96 2468.39,1204.14"/>
    </edge>
    <edge id=":cluster_27127956_27127967_332556586_332556588_11" function="internal">
        <lane id=":cluster_27127956_27127967_332556586_332556588_11_0" index="0" disallow="tram rail_urban rail rail_electric rail_fast ship" speed="11.74" length="28.59" shape="2467.73,1234.44 2469.90,1227.43 2474.01,1222.46 2480.08,1219.54 2488.10,1218.67"/>
    </edge>
    <edge id=":cluster_271685895_271685900_0" function="internal">
        <lane id=":cluster_271685895_271685900_0_0" index="0" disallow="tram rail_urban rail rail_electric rail_fast ship" speed="8.66" length="14.46" shape="1872.30,1219.12 1867.75,1219.47 1864.32,1220.68 1861.99,1222.74 1860.78,1225.65"/>
    </edge>
    <edge id=":cluster_271685895_271685900_1" function="internal">
        <lane id=":cluster_271685895_271685900_1_0" index="0" disallow="tram rail_urban rail rail_electric rail_fast ship" speed="27.78" length="31.21" shape="1872.37,1215.92 1863.26,1215.80 1856.76,1215.48 1850.32,1214.60 1841.41,1212.78"/>
    </edge>
    <edge id=":cluster_271685895_271685900_2" function="internal">
        <lane id=":cluster_271685895_271685900_2_0" index="0" disallow="tram rail_urban rail rail_electric rail_fast ship" speed="10.27" length="29.37" shape="1872.43,1212.72 1864.24,1211.33 1859.38,1207.50 1857.74,1201.35 1859.19,1192.97"/>
    </edge>
    <edge id=":cluster_271685895_271685900_3" function="internal">
        <lane id=":cluster_271685895_271685900_3_0" index="0" disallow="tram rail_urban rail rail_electric rail_fast ship" speed="5.98" length="9.08" shape="1868.36,1195.84 1867.94,1198.41 1868.52,1200.26 1870.09,1201.39 1872.66,1201.81"/>
    </edge>
    <edge id=":cluster_271685895_271685900_4" function="internal">
        <lane id=":cluster_271685895_271685900_4_0" index="0" disallow="tram rail_urban rail rail_electric rail_fast ship" speed="22.22" length="31.14" shape="1865.30,1194.88 1862.62,1203.56 1860.88,1209.81 1859.43,1216.13 1857.64,1225.03"/>
    </edge>
    <edge id=":cluster_271685895_271685900_5" function="internal">
        <lane id=":cluster_271685895_271685900_5_0" index="0" disallow="tram rail_urban rail rail_electric rail_fast ship" speed="11.51" length="28.46" shape="1862.25,1193.93 1858.78,1201.98 1854.26,1207.29 1848.70,1209.85 1842.10,1209.65"/>
    </edge>
    <edge id=":cluster_271685895_271685900_6" function="internal">
        <lane id=":cluster_271685895_271685900_6_0" index="0" disallow="tram rail_urban rail rail_electric rail_fast ship" speed="7.91" length="12.79" shape="1844.48,1198.83 1847.20,1198.79 1849.53,1197.48 1851.50,1194.90 1853.09,1191.06"/>
    </edge>
    <edge id=":cluster_271685895_271685900_7" function="internal">
        <lane id=":cluster_271685895_271685900_7_0" index="0" disallow="tram rail_urban rail rail_electric rail_fast ship" speed="27.78" length="29.03" shape="1843.80,1201.95 1852.24,1203.61 1858.08,1204.46 1863.98,1204.82 1872.59,1205.01"/>
    </edge>
    <edge id=":cluster_271685895_271685900_8" function="internal">
        <lane id=":cluster_271685895_271685900_8_0" index="0" disallow="tram rail_urban rail rail_electric rail_fast ship" speed="10.60" length="25.53" shape="1843.11,1205.08 1849.30,1207.41 1853.26,1211.41 1855.00,1217.08 1854.50,1224.41"/>
    </edge>
    <edge id=":cluster_271685895_271685900_9" function="internal">
        <lane id=":cluster_271685895_271685900_9_0" index="0" disallow="tram rail_urban rail rail_electric rail_fast ship" speed="6.56" length="9.03" shape="1845.08,1222.56 1845.21,1220.10 1844.53,1218.17 1843.03,1216.77 1840.72,1215.90"/>
    </edge>
    <edge id=":cluster_271685895_271685900_10" function="internal">
        <lane id=":cluster_271685895_271685900_10_0" index="0" disallow="tram rail_urban rail rail_electric rail_fast ship" speed="22.22" length="32.18" shape="1848.22,1223.18 1850.05,1214.11 1851.59,1207.45 1853.42,1200.85 1856.14,1192.01"/>
    </edge>
    <edge id=":cluster_271685895_271685900_11" function="internal">
        <lane id=":cluster_271685895_271685900_11_0" index="0" disallow="tram rail_urban rail rail_electric rail_fast ship" speed="12.03" length="28.94" shape="1851.36,1223.80 1853.86,1216.84 1858.22,1211.93 1864.44,1209.05 1872.52,1208.21"/>
    </edge>
    <edge id=":cluster_31319857_313481271_0" function="internal">
        <lane id=":cluster_31319857_313481271_0_0" index="0" disallow="tram rail_urban rail rail_electric rail_fast ship" speed="12.71" length="28.61" shape="3947.20,1235.78 3937.72,1236.51 3930.47,1238.58 3925.45,1241.98 3922.66,1246.72"/>
    </edge>
    <edge id=":cluster_31319857_313481271_1" function="internal">
        <lane id=":cluster_31319857_313481271_1_0" index="0" disallow="tram rail_urban rail rail_electric rail_fast ship" speed="27.78" length="44.18" shape="3947.16,1232.58 3902.98,1232.92"/>
    </edge>
    <edge id=":cluster_31319857_313481271_2" function="internal">
        <lane id=":cluster_31319857_313481271_2_0" index="0" disallow="tram rail_urban rail rail_electric rail_fast ship" speed="10.48" length="29.73" shape="3947.12,1229.38 3938.79,1228.17 3933.83,1224.46 3931.99,1218.28 3933.01,1209.67"/>
    </edge>
    <edge id=":cluster_31319857_313481271_3" function="internal">
        <lane id=":cluster_31319857_313481271_3_0" index="0" disallow="tram rail_urban rail rail_electric rail_fast ship" speed="6.04" length="9.07" shape="3942.34,1211.91 3942.10,1214.49 3942.79,1216.31 3944.42,1217.39 3946.98,1217.73"/>
    </edge>
    <edge id=":cluster_31319857_313481271_4" function="internal">
        <lane id=":cluster_31319857_313481271_4_0" index="0" disallow="tram rail_urban rail rail_electric rail_fast ship" speed="22.22" length="40.00" shape="3939.23,1211.17 3935.31,1220.71 3929.77,1228.56 3924.05,1236.37 3919.60,1245.77"/>
    </edge>
    <edge id=":cluster_31319857_313481271_5" function="internal">
        <lane id=":cluster_31319857_313481271_5_0" index="0" disallow="tram rail_urban rail rail_electric rail_fast ship" speed="14.81" length="41.53" shape="3936.12,1210.42 3932.33,1218.75 3925.54,1224.75 3915.75,1228.40 3902.95,1229.72"/>
    </edge>
    <edge id=":cluster_31319857_313481271_6" function="internal">
        <lane id=":cluster_31319857_313481271_6_0" index="0" disallow="tram rail_urban rail rail_electric rail_fast ship" speed="12.18" length="27.72" shape="3902.83,1218.29 3912.42,1217.55 3919.61,1215.62 3924.40,1212.49 3926.78,1208.17"/>
    </edge>
    <edge id=":cluster_31319857_313481271_7" function="internal">
        <lane id=":cluster_31319857_313481271_7_0" index="0" disallow="tram rail_urban rail rail_electric rail_fast ship" speed="27.78" length="44.16" shape="3902.86,1221.49 3947.02,1220.93"/>
    </edge>
    <edge id=":cluster_31319857_313481271_8" function="internal">
        <lane id=":cluster_31319857_313481271_8_0" index="0" disallow="tram rail_urban rail rail_electric rail_fast ship" speed="10.32" length="30.15" shape="3902.90,1224.69 3911.29,1225.94 3916.29,1229.85 3918.00,1236.20 3916.54,1244.82"/>
    </edge>
    <edge id=":cluster_31319857_313481271_9" function="internal">
        <lane id=":cluster_31319857_313481271_9_0" index="0" disallow="tram rail_urban rail rail_electric rail_fast ship" speed="5.94" length="9.09" shape="3907.38,1241.98 3907.79,1239.39 3907.20,1237.55 3905.61,1236.46 3903.02,1236.12"/>
    </edge>
    <edge id=":cluster_31319857_313481271_10" function="internal">
        <lane id=":cluster_31319857_313481271_10_0" index="0" disallow="tram rail_urban rail rail_electric rail_fast ship" speed="22.22" length="39.41" shape="3910.43,1242.92 3914.85,1233.62 3920.51,1226.02 3926.00,1218.37 3929.90,1208.92"/>
    </edge>
    <edge id=":cluster_31319857_313481271_11" function="internal">
        <lane id=":cluster_31319857_313481271_11_0" index="0" disallow="tram rail_urban rail rail_electric rail_fast ship" speed="15.34" length="41.84" shape="3913.49,1243.87 3917.84,1235.36 3924.89,1229.23 3934.63,1225.49 3947.06,1224.13"/>
    </edge>
    <edge id=":cluster_9528742117_9528742118_0" function="internal">