<?xml version="1.0" encoding="UTF-8"?>

<!-- generated on 2023-04-23 20:55:25 by Eclipse SUMO netedit Version 1.16.0
<configuration xmlns:xsi="http://www.w3.org/2001/XMLSchema-instance" xsi:noNamespaceSchemaLocation="http://sumo.dlr.de/xsd/netconvertConfiguration.xsd">

    <input>
        <sumo-net_file-file value="C:\Users\Metro\PycharmProjects\When-it-comes-to-multiagent-signal-control-what-do-we-think-of\envs\Metro.net_file.xml"/>
    </input>

    <output>
        <output-file value="C:\Users\Metro\PycharmProjects\When-it-comes-to-multiagent-signal-control-what-do-we-think-of\envs\Metro.net_file.xml"/>
    </output>

    <processing>
        <geometry.min-radius.fix.railways value="false"/>
        <geometry.max-grade.fix value="false"/>
        <offset.disable-normalization value="true"/>
        <lefthand value="0"/>
    </processing>

    <junctions>
        <no-turnarounds value="true"/>
        <junctions.corner-detail value="5"/>
        <junctions.limit-turn-speed value="5.50"/>
        <rectangular-lane-cut value="0"/>
    </junctions>

    <pedestrian>
        <walkingareas value="0"/>
    </pedestrian>

</configuration>
-->

<net version="1.16" junctionCornerDetail="5" limitTurnSpeed="5.50" xmlns:xsi="http://www.w3.org/2001/XMLSchema-instance" xsi:noNamespaceSchemaLocation="http://sumo.dlr.de/xsd/net_file.xsd">

    <location netOffset="-218164.12,-3351952.18" convBoundary="1303.10,678.62,5097.99,1867.37" origBoundary="119.994735,30.266873,120.146602,30.296545" projParameter="+proj=utm +zone=51 +ellps=WGS84 +datum=WGS84 +units=m +no_defs"/>

    <type id="highway.bridleway" priority="1" numLanes="1" speed="2.78" allow="pedestrian" oneway="1" width="2.00"/>
    <type id="highway.bus_guideway" priority="1" numLanes="1" speed="27.78" allow="bus" oneway="1"/>
    <type id="highway.cycleway" priority="1" numLanes="1" speed="8.33" allow="bicycle" oneway="0" width="1.00"/>
    <type id="highway.footway" priority="1" numLanes="1" speed="2.78" allow="pedestrian" oneway="1" width="2.00"/>
    <type id="highway.ford" priority="1" numLanes="1" speed="2.78" allow="army" oneway="0"/>
    <type id="highway.living_street" priority="2" numLanes="1" speed="2.78" disallow="tram rail_urban rail rail_electric rail_fast ship" oneway="0"/>
    <type id="highway.motorway" priority="14" numLanes="2" speed="39.44" allow="private emergency authority army vip passenger hov taxi bus coach delivery truck trailer motorcycle evehicle custom1 custom2" oneway="1"/>
    <type id="highway.motorway_link" priority="9" numLanes="1" speed="22.22" allow="private emergency authority army vip passenger hov taxi bus coach delivery truck trailer motorcycle evehicle custom1 custom2" oneway="1"/>
    <type id="highway.path" priority="1" numLanes="1" speed="2.78" allow="pedestrian bicycle" oneway="0" width="2.00"/>
    <type id="highway.pedestrian" priority="1" numLanes="1" speed="2.78" allow="pedestrian" oneway="1" width="2.00"/>
    <type id="highway.primary" priority="12" numLanes="2" speed="27.78" disallow="tram rail_urban rail rail_electric rail_fast ship" oneway="0"/>
    <type id="highway.primary_link" priority="7" numLanes="1" speed="22.22" disallow="tram rail_urban rail rail_electric rail_fast ship" oneway="0"/>
    <type id="highway.raceway" priority="15" numLanes="2" speed="83.33" allow="vip" oneway="0"/>
    <type id="highway.residential" priority="3" numLanes="1" speed="13.89" disallow="tram rail_urban rail rail_electric rail_fast ship" oneway="0"/>
    <type id="highway.secondary" priority="11" numLanes="1" speed="27.78" disallow="tram rail_urban rail rail_electric rail_fast ship" oneway="0"/>
    <type id="highway.secondary_link" priority="6" numLanes="1" speed="22.22" disallow="tram rail_urban rail rail_electric rail_fast ship" oneway="0"/>
    <type id="highway.service" priority="1" numLanes="1" speed="5.56" allow="pedestrian delivery bicycle" oneway="0"/>
    <type id="highway.stairs" priority="1" numLanes="1" speed="1.39" allow="pedestrian" oneway="1" width="2.00"/>
    <type id="highway.step" priority="1" numLanes="1" speed="1.39" allow="pedestrian" oneway="1" width="2.00"/>
    <type id="highway.steps" priority="1" numLanes="1" speed="1.39" allow="pedestrian" oneway="1" width="2.00"/>
    <type id="highway.tertiary" priority="10" numLanes="1" speed="22.22" disallow="tram rail_urban rail rail_electric rail_fast ship" oneway="0"/>
    <type id="highway.tertiary_link" priority="5" numLanes="1" speed="22.22" disallow="tram rail_urban rail rail_electric rail_fast ship" oneway="0"/>
    <type id="highway.track" priority="1" numLanes="1" speed="5.56" allow="pedestrian motorcycle moped bicycle" oneway="0"/>
    <type id="highway.trunk" priority="13" numLanes="2" speed="27.78" disallow="pedestrian bicycle tram rail_urban rail rail_electric rail_fast ship" oneway="0"/>
    <type id="highway.trunk_link" priority="8" numLanes="1" speed="22.22" disallow="pedestrian bicycle tram rail_urban rail rail_electric rail_fast ship" oneway="0"/>
    <type id="highway.unclassified" priority="4" numLanes="1" speed="13.89" disallow="tram rail_urban rail rail_electric rail_fast ship" oneway="0"/>
    <type id="highway.unsurfaced" priority="1" numLanes="1" speed="8.33" disallow="tram rail_urban rail rail_electric rail_fast ship" oneway="0"/>
    <type id="railway.highspeed" priority="21" numLanes="1" speed="69.44" allow="rail_fast" oneway="1"/>
    <type id="railway.light_rail" priority="19" numLanes="1" speed="27.78" allow="rail_urban" oneway="1"/>
    <type id="railway.preserved" priority="16" numLanes="1" speed="27.78" allow="rail" oneway="1"/>
    <type id="railway.rail" priority="20" numLanes="1" speed="44.44" allow="rail" oneway="1"/>
    <type id="railway.subway" priority="18" numLanes="1" speed="27.78" allow="rail_urban" oneway="1"/>
    <type id="railway.tram" priority="17" numLanes="1" speed="13.89" allow="tram" oneway="1"/>

    <edge id=":cluster_26197704_3382408997_0" function="internal">
        <lane id=":cluster_26197704_3382408997_0_0" index="0" disallow="tram rail_urban rail rail_electric rail_fast ship" speed="6.61" length="9.32" shape="4752.01,1243.23 4749.55,1243.48 4747.74,1244.51 4746.59,1246.32 4746.10,1248.90"/>
        <lane id=":cluster_26197704_3382408997_0_1" index="1" disallow="tram rail_urban rail rail_electric rail_fast ship" speed="7.41" length="11.98" shape="4752.01,1243.23 4748.15,1243.41 4745.34,1244.38 4743.60,1246.16 4742.91,1248.73"/>
        <lane id=":cluster_26197704_3382408997_0_2" index="2" disallow="tram rail_urban rail rail_electric rail_fast ship" speed="8.17" length="14.79" shape="4752.01,1243.23 4746.75,1243.34 4742.95,1244.26 4740.60,1246.00 4739.71,1248.55"/>
    </edge>
    <edge id=":cluster_26197704_3382408997_3" function="internal">
        <lane id=":cluster_26197704_3382408997_3_0" index="0" disallow="tram rail_urban rail rail_electric rail_fast ship" speed="27.78" length="28.33" shape="4752.15,1240.03 4743.77,1240.13 4738.04,1241.00 4732.31,1241.93 4723.91,1242.22"/>
        <lane id=":cluster_26197704_3382408997_3_1" index="1" disallow="tram rail_urban rail rail_electric rail_fast ship" speed="27.78" length="28.33" shape="4752.15,1240.03 4724.00,1239.02"/>
        <lane id=":cluster_26197704_3382408997_3_2" index="2" disallow="tram rail_urban rail rail_electric rail_fast ship" speed="27.78" length="28.33" shape="4752.15,1240.03 4743.78,1239.13 4738.12,1237.80 4732.46,1236.54 4724.08,1235.82"/>
    </edge>
    <edge id=":cluster_26197704_3382408997_6" function="internal">
        <lane id=":cluster_26197704_3382408997_6_0" index="0" disallow="tram rail_urban rail rail_electric rail_fast ship" speed="11.53" length="31.76" shape="4752.30,1236.84 4745.05,1234.68 4737.81,1229.72 4732.40,1223.23 4730.63,1216.49"/>
        <lane id=":cluster_26197704_3382408997_6_1" index="1" disallow="tram rail_urban rail rail_electric rail_fast ship" speed="11.11" length="29.42" shape="4752.30,1236.84 4745.54,1234.78 4739.39,1230.02 4735.07,1223.68 4733.80,1216.90"/>
        <lane id=":cluster_26197704_3382408997_6_2" index="2" disallow="tram rail_urban rail rail_electric rail_fast ship" speed="10.96" length="28.63" shape="4752.30,1236.84 4744.89,1235.29 4739.87,1231.52 4737.23,1225.53 4736.98,1217.30"/>
    </edge>
    <edge id=":cluster_26197704_3382408997_9" function="internal">
        <lane id=":cluster_26197704_3382408997_9_0" index="0" disallow="tram rail_urban rail rail_electric rail_fast ship" speed="6.72" length="10.11" shape="4746.50,1218.53 4746.68,1221.05 4747.80,1222.90 4749.86,1224.07 4752.87,1224.57"/>
        <lane id=":cluster_26197704_3382408997_9_1" index="1" disallow="tram rail_urban rail rail_electric rail_fast ship" speed="7.49" length="12.81" shape="4746.50,1218.53 4746.55,1222.44 4747.60,1225.29 4749.66,1227.06 4752.72,1227.77"/>
        <lane id=":cluster_26197704_3382408997_9_2" index="2" disallow="tram rail_urban rail rail_electric rail_fast ship" speed="8.22" length="15.67" shape="4746.50,1218.53 4746.41,1223.84 4747.40,1227.68 4749.45,1230.06 4752.57,1230.97"/>
    </edge>
    <edge id=":cluster_26197704_3382408997_12" function="internal">
        <lane id=":cluster_26197704_3382408997_12_0" index="0" disallow="tram rail_urban rail rail_electric rail_fast ship" speed="22.22" length="30.77" shape="4743.33,1218.12 4743.24,1227.12 4744.46,1233.49 4745.80,1239.87 4746.10,1248.90"/>
        <lane id=":cluster_26197704_3382408997_12_1" index="1" disallow="tram rail_urban rail rail_electric rail_fast ship" speed="22.22" length="30.77" shape="4743.33,1218.12 4742.91,1248.73"/>
        <lane id=":cluster_26197704_3382408997_12_2" index="2" disallow="tram rail_urban rail rail_electric rail_fast ship" speed="22.22" length="30.77" shape="4743.33,1218.12 4739.71,1248.55"/>
    </edge>
    <edge id=":cluster_26197704_3382408997_15" function="internal">
        <lane id=":cluster_26197704_3382408997_15_0" index="0" disallow="tram rail_urban rail rail_electric rail_fast ship" speed="12.19" length="32.34" shape="4740.15,1217.71 4738.20,1228.57 4734.84,1236.27 4730.08,1240.82 4723.91,1242.22"/>
        <lane id=":cluster_26197704_3382408997_15_1" index="1" disallow="tram rail_urban rail rail_electric rail_fast ship" speed="11.69" length="29.66" shape="4740.15,1217.71 4738.32,1227.17 4735.02,1233.87 4730.24,1237.82 4724.00,1239.02"/>
        <lane id=":cluster_26197704_3382408997_15_2" index="2" disallow="tram rail_urban rail rail_electric rail_fast ship" speed="11.18" length="27.06" shape="4740.15,1217.71 4738.45,1225.77 4735.20,1231.48 4730.41,1234.83 4724.08,1235.82"/>
    </edge>
    <edge id=":cluster_26197704_3382408997_18" function="internal">
        <lane id=":cluster_26197704_3382408997_18_0" index="0" disallow="tram rail_urban rail rail_electric rail_fast ship" speed="7.08" length="10.36" shape="4724.41,1223.33 4726.86,1222.98 4728.72,1221.72 4729.97,1219.56 4730.63,1216.49"/>
        <lane id=":cluster_26197704_3382408997_18_1" index="1" disallow="tram rail_urban rail rail_electric rail_fast ship" speed="7.80" length="12.76" shape="4724.41,1223.33 4728.26,1223.05 4731.11,1221.88 4732.96,1219.83 4733.80,1216.90"/>
        <lane id=":cluster_26197704_3382408997_18_2" index="2" disallow="tram rail_urban rail rail_electric rail_fast ship" speed="8.50" length="15.35" shape="4724.41,1223.33 4729.66,1223.11 4733.51,1222.04 4735.95,1220.10 4736.98,1217.30"/>
    </edge>
    <edge id=":cluster_26197704_3382408997_21" function="internal">
        <lane id=":cluster_26197704_3382408997_21_0" index="0" disallow="tram rail_urban rail rail_electric rail_fast ship" speed="27.78" length="28.58" shape="4724.32,1226.53 4732.81,1226.34 4738.60,1225.49 4744.39,1224.66 4752.87,1224.57"/>
        <lane id=":cluster_26197704_3382408997_21_1" index="1" disallow="tram rail_urban rail rail_electric rail_fast ship" speed="27.78" length="28.58" shape="4724.32,1226.53 4752.72,1227.77"/>
        <lane id=":cluster_26197704_3382408997_21_2" index="2" disallow="tram rail_urban rail rail_electric rail_fast ship" speed="27.78" length="28.58" shape="4724.32,1226.53 4732.76,1227.34 4738.45,1228.68 4744.14,1230.06 4752.57,1230.97"/>
    </edge>
    <edge id=":cluster_26197704_3382408997_24" function="internal">
        <lane id=":cluster_26197704_3382408997_24_0" index="0" disallow="tram rail_urban rail rail_electric rail_fast ship" speed="11.53" length="31.03" shape="4724.24,1229.73 4731.47,1231.68 4738.67,1236.28 4744.13,1242.40 4746.10,1248.90"/>
        <lane id=":cluster_26197704_3382408997_24_1" index="1" disallow="tram rail_urban rail rail_electric rail_fast ship" speed="11.12" length="28.81" shape="4724.24,1229.73 4730.97,1231.58 4737.08,1236.02 4741.44,1242.06 4742.91,1248.73"/>
        <lane id=":cluster_26197704_3382408997_24_2" index="2" disallow="tram rail_urban rail rail_electric rail_fast ship" speed="10.95" length="27.88" shape="4724.24,1229.73 4731.38,1231.13 4736.34,1234.73 4739.12,1240.54 4739.71,1248.55"/>
    </edge>
    <edge id=":cluster_26197704_3382408997_27" function="internal">
        <lane id=":cluster_26197704_3382408997_27_0" index="0" disallow="tram rail_urban rail rail_electric rail_fast ship" speed="6.67" length="9.74" shape="4730.13,1248.03 4729.85,1245.55 4728.73,1243.76 4726.75,1242.65 4723.91,1242.22"/>
        <lane id=":cluster_26197704_3382408997_27_1" index="1" disallow="tram rail_urban rail rail_electric rail_fast ship" speed="7.45" length="12.42" shape="4730.13,1248.03 4729.92,1244.15 4728.84,1241.36 4726.86,1239.65 4724.00,1239.02"/>
        <lane id=":cluster_26197704_3382408997_27_2" index="2" disallow="tram rail_urban rail rail_electric rail_fast ship" speed="8.19" length="15.26" shape="4730.13,1248.03 4729.99,1242.75 4728.94,1238.96 4726.97,1236.65 4724.08,1235.82"/>
    </edge>
    <edge id=":cluster_26197704_3382408997_30" function="internal">
        <lane id=":cluster_26197704_3382408997_30_0" index="0" disallow="tram rail_urban rail rail_electric rail_fast ship" speed="22.22" length="31.46" shape="4733.32,1248.20 4733.03,1239.03 4731.72,1232.32 4730.53,1225.63 4730.63,1216.49"/>
        <lane id=":cluster_26197704_3382408997_30_1" index="1" disallow="tram rail_urban rail rail_electric rail_fast ship" speed="22.22" length="31.46" shape="4733.32,1248.20 4733.80,1216.90"/>
        <lane id=":cluster_26197704_3382408997_30_2" index="2" disallow="tram rail_urban rail rail_electric rail_fast ship" speed="22.22" length="31.46" shape="4733.32,1248.20 4736.98,1217.30"/>
    </edge>
    <edge id=":cluster_26197704_3382408997_33" function="internal">
        <lane id=":cluster_26197704_3382408997_33_0" index="0" disallow="tram rail_urban rail rail_electric rail_fast ship" speed="11.87" length="32.34" shape="4736.52,1248.38 4738.04,1237.69 4741.28,1230.16 4746.22,1225.79 4752.87,1224.57"/>
        <lane id=":cluster_26197704_3382408997_33_1" index="1" disallow="tram rail_urban rail rail_electric rail_fast ship" speed="11.37" length="29.59" shape="4736.52,1248.38 4737.97,1239.09 4741.15,1232.56 4746.07,1228.79 4752.72,1227.77"/>
        <lane id=":cluster_26197704_3382408997_33_2" index="2" disallow="tram rail_urban rail rail_electric rail_fast ship" speed="10.86" length="26.90" shape="4736.52,1248.38 4737.89,1240.49 4741.03,1234.96 4745.92,1231.78 4752.57,1230.97"/>
    </edge>
    <edge id=":cluster_262909297_3382408993_3382408994_3382408995_0" function="internal">
        <lane id=":cluster_262909297_3382408993_3382408994_3382408995_0_0" index="0" disallow="tram rail_urban rail rail_electric rail_fast ship" speed="6.86" length="9.90" shape="4329.29,1233.74 4326.79,1234.11 4324.96,1235.29 4323.80,1237.31 4323.32,1240.14"/>
        <lane id=":cluster_262909297_3382408993_3382408994_3382408995_0_1" index="1" disallow="tram rail_urban rail rail_electric rail_fast ship" speed="7.62" length="12.48" shape="4329.29,1233.74 4325.39,1234.08 4322.56,1235.23 4320.80,1237.20 4320.12,1239.99"/>
        <lane id=":cluster_262909297_3382408993_3382408994_3382408995_0_2" index="2" disallow="tram rail_urban rail rail_electric rail_fast ship" speed="8.36" length="15.22" shape="4329.29,1233.74 4323.99,1234.05 4320.16,1235.17 4317.81,1237.10 4316.92,1239.83"/>
    </edge>
    <edge id=":cluster_262909297_3382408993_3382408994_3382408995_3" function="internal">
        <lane id=":cluster_262909297_3382408993_3382408994_3382408995_3_0" index="0" disallow="tram rail_urban rail rail_electric rail_fast ship" speed="27.78" length="30.34" shape="4329.59,1230.54 4320.65,1230.92 4314.48,1231.99 4308.32,1233.08 4299.38,1233.55"/>
        <lane id=":cluster_262909297_3382408993_3382408994_3382408995_3_1" index="1" disallow="tram rail_urban rail rail_electric rail_fast ship" speed="27.78" length="30.34" shape="4329.59,1230.54 4299.40,1230.35"/>
        <lane id=":cluster_262909297_3382408993_3382408994_3382408995_3_2" index="2" disallow="tram rail_urban rail rail_electric rail_fast ship" speed="27.78" length="30.34" shape="4329.59,1230.54 4320.65,1229.92 4314.50,1228.79 4308.35,1227.68 4299.41,1227.15"/>
    </edge>
    <edge id=":cluster_262909297_3382408993_3382408994_3382408995_6" function="internal">
        <lane id=":cluster_262909297_3382408993_3382408994_3382408995_6_0" index="0" disallow="tram rail_urban rail rail_electric rail_fast ship" speed="11.70" length="31.21" shape="4329.89,1227.35 4322.77,1225.44 4315.79,1220.72 4310.48,1214.37 4308.37,1207.55"/>
        <lane id=":cluster_262909297_3382408993_3382408994_3382408995_6_1" index="1" disallow="tram rail_urban rail rail_electric rail_fast ship" speed="11.30" length="29.05" shape="4329.89,1227.35 4323.27,1225.45 4317.39,1220.73 4313.18,1214.38 4311.57,1207.56"/>
        <lane id=":cluster_262909297_3382408993_3382408994_3382408995_6_2" index="2" disallow="tram rail_urban rail rail_electric rail_fast ship" speed="11.13" length="28.18" shape="4329.89,1227.35 4323.26,1226.02 4318.53,1222.28 4315.70,1216.13 4314.77,1207.57"/>
    </edge>
    <edge id=":cluster_262909297_3382408993_3382408994_3382408995_9" function="internal">
        <lane id=":cluster_262909297_3382408993_3382408994_3382408995_9_0" index="0" disallow="tram rail_urban rail rail_electric rail_fast ship" speed="6.84" length="9.87" shape="4324.92,1207.60 4325.29,1210.16 4326.46,1212.03 4328.42,1213.19 4331.18,1213.64"/>
        <lane id=":cluster_262909297_3382408993_3382408994_3382408995_9_1" index="1" disallow="tram rail_urban rail rail_electric rail_fast ship" speed="7.57" length="12.34" shape="4324.92,1207.60 4325.26,1211.56 4326.37,1214.43 4328.25,1216.18 4330.88,1216.84"/>
        <lane id=":cluster_262909297_3382408993_3382408994_3382408995_9_2" index="2" disallow="tram rail_urban rail rail_electric rail_fast ship" speed="8.28" length="14.98" shape="4324.92,1207.60 4325.24,1212.96 4326.29,1216.82 4328.07,1219.18 4330.58,1220.03"/>
    </edge>
    <edge id=":cluster_262909297_3382408993_3382408994_3382408995_12" function="internal">
        <lane id=":cluster_262909297_3382408993_3382408994_3382408995_12_0" index="0" disallow="tram rail_urban rail rail_electric rail_fast ship" speed="27.78" length="32.57" shape="4321.72,1207.59 4323.32,1240.14"/>
        <lane id=":cluster_262909297_3382408993_3382408994_3382408995_12_1" index="1" disallow="tram rail_urban rail rail_electric rail_fast ship" speed="27.78" length="32.57" shape="4321.72,1207.59 4320.12,1239.99"/>
        <lane id=":cluster_262909297_3382408993_3382408994_3382408995_12_2" index="2" disallow="tram rail_urban rail rail_electric rail_fast ship" speed="27.78" length="32.57" shape="4321.72,1207.59 4321.02,1216.85 4319.54,1223.72 4317.95,1230.58 4316.92,1239.83"/>
    </edge>
    <edge id=":cluster_262909297_3382408993_3382408994_3382408995_15" function="internal">
        <lane id=":cluster_262909297_3382408993_3382408994_3382408995_15_0" index="0" disallow="tram rail_urban rail rail_electric rail_fast ship" speed="12.13" length="33.91" shape="4318.52,1207.58 4316.60,1215.39 4311.86,1223.91 4305.66,1230.76 4299.38,1233.55"/>
        <lane id=":cluster_262909297_3382408993_3382408994_3382408995_15_1" index="1" disallow="tram rail_urban rail rail_electric rail_fast ship" speed="11.73" length="31.63" shape="4318.52,1207.58 4316.70,1214.89 4312.12,1222.32 4305.96,1228.06 4299.40,1230.35"/>
        <lane id=":cluster_262909297_3382408993_3382408994_3382408995_15_2" index="2" disallow="tram rail_urban rail rail_electric rail_fast ship" speed="11.33" length="29.44" shape="4318.52,1207.58 4316.75,1214.39 4312.27,1220.72 4306.14,1225.36 4299.41,1227.15"/>
    </edge>
    <edge id=":cluster_262909297_3382408993_3382408994_3382408995_18" function="internal">
        <lane id=":cluster_262909297_3382408993_3382408994_3382408995_18_0" index="0" disallow="tram rail_urban rail rail_electric rail_fast ship" speed="7.25" length="11.73" shape="4299.49,1212.92 4303.37,1212.69 4306.15,1211.71 4307.81,1210.00 4308.37,1207.55"/>
        <lane id=":cluster_262909297_3382408993_3382408994_3382408995_18_1" index="1" disallow="tram rail_urban rail rail_electric rail_fast ship" speed="8.03" length="14.63" shape="4299.49,1212.92 4304.77,1212.72 4308.55,1211.77 4310.81,1210.05 4311.57,1207.56"/>
        <lane id=":cluster_262909297_3382408993_3382408994_3382408995_18_2" index="2" disallow="tram rail_urban rail rail_electric rail_fast ship" speed="8.76" length="17.60" shape="4299.49,1212.92 4306.17,1212.76 4310.95,1211.82 4313.81,1210.09 4314.77,1207.57"/>
    </edge>
    <edge id=":cluster_262909297_3382408993_3382408994_3382408995_21" function="internal">
        <lane id=":cluster_262909297_3382408993_3382408994_3382408995_21_0" index="0" disallow="tram rail_urban rail rail_electric rail_fast ship" speed="27.78" length="31.56" shape="4299.47,1216.12 4308.64,1215.86 4315.33,1214.87 4322.01,1213.89 4331.18,1213.64"/>
        <lane id=":cluster_262909297_3382408993_3382408994_3382408995_21_1" index="1" disallow="tram rail_urban rail rail_electric rail_fast ship" speed="27.78" length="31.56" shape="4299.47,1216.12 4330.88,1216.84"/>
        <lane id=":cluster_262909297_3382408993_3382408994_3382408995_21_2" index="2" disallow="tram rail_urban rail rail_electric rail_fast ship" speed="27.78" length="31.56" shape="4299.47,1216.12 4308.55,1216.86 4315.03,1218.06 4321.50,1219.27 4330.58,1220.03"/>
    </edge>
    <edge id=":cluster_262909297_3382408993_3382408994_3382408995_24" function="internal">
        <lane id=":cluster_262909297_3382408993_3382408994_3382408995_24_0" index="0" disallow="tram rail_urban rail rail_electric rail_fast ship" speed="11.98" length="33.51" shape="4299.46,1219.32 4306.99,1221.50 4314.86,1226.67 4321.00,1233.37 4323.32,1240.14"/>
        <lane id=":cluster_262909297_3382408993_3382408994_3382408995_24_1" index="1" disallow="tram rail_urban rail rail_electric rail_fast ship" speed="11.59" length="31.27" shape="4299.46,1219.32 4306.49,1221.42 4313.27,1226.43 4318.31,1233.05 4320.12,1239.99"/>
        <lane id=":cluster_262909297_3382408993_3382408994_3382408995_24_2" index="2" disallow="tram rail_urban rail rail_electric rail_fast ship" speed="11.51" length="30.81" shape="4299.46,1219.32 4307.45,1220.82 4313.02,1224.74 4316.18,1231.08 4316.92,1239.83"/>
    </edge>
    <edge id=":cluster_262909297_3382408993_3382408994_3382408995_27" function="internal">
        <lane id=":cluster_262909297_3382408993_3382408994_3382408995_27_0" index="0" disallow="tram rail_urban rail rail_electric rail_fast ship" speed="6.45" length="9.06" shape="4304.84,1239.25 4304.57,1236.77 4303.57,1234.99 4301.84,1233.92 4299.38,1233.55"/>
        <lane id=":cluster_262909297_3382408993_3382408994_3382408995_27_1" index="1" disallow="tram rail_urban rail rail_electric rail_fast ship" speed="7.27" length="11.80" shape="4304.84,1239.25 4304.61,1235.37 4303.63,1232.59 4301.89,1230.92 4299.40,1230.35"/>
        <lane id=":cluster_262909297_3382408993_3382408994_3382408995_27_2" index="2" disallow="tram rail_urban rail rail_electric rail_fast ship" speed="8.05" length="14.69" shape="4304.84,1239.25 4304.65,1233.97 4303.69,1230.19 4301.94,1227.92 4299.41,1227.15"/>
    </edge>
    <edge id=":cluster_262909297_3382408993_3382408994_3382408995_30" function="internal">
        <lane id=":cluster_262909297_3382408993_3382408994_3382408995_30_0" index="0" disallow="tram rail_urban rail rail_electric rail_fast ship" speed="27.78" length="32.20" shape="4308.03,1239.40 4308.37,1207.55"/>
        <lane id=":cluster_262909297_3382408993_3382408994_3382408995_30_1" index="1" disallow="tram rail_urban rail rail_electric rail_fast ship" speed="27.78" length="32.20" shape="4308.03,1239.40 4311.57,1207.56"/>
        <lane id=":cluster_262909297_3382408993_3382408994_3382408995_30_2" index="2" disallow="tram rail_urban rail rail_electric rail_fast ship" speed="27.78" length="32.20" shape="4308.03,1239.40 4309.30,1230.21 4311.58,1223.49 4313.78,1216.76 4314.77,1207.57"/>
    </edge>
    <edge id=":cluster_262909297_3382408993_3382408994_3382408995_33" function="internal">
        <lane id=":cluster_262909297_3382408993_3382408994_3382408995_33_0" index="0" disallow="tram rail_urban rail rail_electric rail_fast ship" speed="12.19" length="34.32" shape="4311.23,1239.56 4313.38,1231.73 4318.41,1223.17 4324.83,1216.34 4331.18,1213.64"/>
        <lane id=":cluster_262909297_3382408993_3382408994_3382408995_33_1" index="1" disallow="tram rail_urban rail rail_electric rail_fast ship" speed="11.77" length="31.90" shape="4311.23,1239.56 4313.25,1232.22 4318.03,1224.76 4324.32,1219.02 4330.88,1216.84"/>
        <lane id=":cluster_262909297_3382408993_3382408994_3382408995_33_2" index="2" disallow="tram rail_urban rail rail_electric rail_fast ship" speed="11.35" length="29.58" shape="4311.23,1239.56 4313.13,1232.72 4317.69,1226.35 4323.85,1221.71 4330.58,1220.03"/>
    </edge>
    <edge id=":cluster_26496834_26496835_26496836_26496837_0" function="internal">
        <lane id=":cluster_26496834_26496835_26496836_26496837_0_0" index="0" disallow="tram rail_urban rail rail_electric rail_fast ship" speed="8.74" length="15.31" shape="3466.68,1240.67 3462.63,1241.28 3459.56,1243.02 3457.49,1245.89 3456.40,1249.88"/>
        <lane id=":cluster_26496834_26496835_26496836_26496837_0_1" index="1" disallow="tram rail_urban rail rail_electric rail_fast ship" speed="9.37" length="17.71" shape="3466.68,1240.67 3461.22,1241.26 3457.15,1242.93 3454.49,1245.67 3453.22,1249.47"/>
        <lane id=":cluster_26496834_26496835_26496836_26496837_0_2" index="2" disallow="tram rail_urban rail rail_electric rail_fast ship" speed="9.98" length="20.26" shape="3466.68,1240.67 3459.81,1241.25 3454.74,1242.84 3451.49,1245.45 3450.05,1249.06"/>
    </edge>
    <edge id=":cluster_26496834_26496835_26496836_26496837_3" function="internal">
        <lane id=":cluster_26496834_26496835_26496836_26496837_3_0" index="0" disallow="tram rail_urban rail rail_electric rail_fast ship" speed="27.78" length="35.78" shape="3466.65,1237.47 3456.84,1238.20 3448.76,1239.63 3440.69,1240.94 3430.88,1241.32"/>
        <lane id=":cluster_26496834_26496835_26496836_26496837_3_1" index="1" disallow="tram rail_urban rail rail_electric rail_fast ship" speed="27.78" length="35.78" shape="3466.65,1237.47 3430.99,1238.12"/>
        <lane id=":cluster_26496834_26496835_26496836_26496837_3_2" index="2" disallow="tram rail_urban rail rail_electric rail_fast ship" speed="27.78" length="35.78" shape="3466.65,1237.47 3431.09,1234.92"/>
    </edge>
    <edge id=":cluster_26496834_26496835_26496836_26496837_6" function="internal">
        <lane id=":cluster_26496834_26496835_26496836_26496837_6_0" index="0" disallow="tram rail_urban rail rail_electric rail_fast ship" speed="11.40" length="35.41" shape="3466.62,1234.27 3458.79,1232.00 3450.38,1226.29 3444.03,1218.93 3442.35,1211.75"/>
        <lane id=":cluster_26496834_26496835_26496836_26496837_6_1" index="1" disallow="tram rail_urban rail rail_electric rail_fast ship" speed="10.99" length="32.82" shape="3466.62,1234.27 3459.28,1232.12 3451.94,1226.65 3446.66,1219.55 3445.46,1212.48"/>
        <lane id=":cluster_26496834_26496835_26496836_26496837_6_2" index="2" disallow="tram rail_urban rail rail_electric rail_fast ship" speed="11.18" length="34.01" shape="3466.62,1234.27 3456.80,1233.15 3450.50,1229.42 3447.74,1222.85 3448.58,1213.21"/>
    </edge>
    <edge id=":cluster_26496834_26496835_26496836_26496837_9" function="internal">
        <lane id=":cluster_26496834_26496835_26496836_26496837_9_0" index="0" disallow="tram rail_urban rail rail_electric rail_fast ship" speed="6.08" length="9.08" shape="3461.79,1216.33 3461.60,1218.90 3462.32,1220.73 3463.95,1221.82 3466.50,1222.16"/>
        <lane id=":cluster_26496834_26496835_26496836_26496837_9_1" index="1" disallow="tram rail_urban rail rail_electric rail_fast ship" speed="6.94" length="12.20" shape="3461.79,1216.33 3461.33,1220.31 3461.97,1223.14 3463.71,1224.82 3466.53,1225.36"/>
        <lane id=":cluster_26496834_26496835_26496836_26496837_9_2" index="2" disallow="tram rail_urban rail rail_electric rail_fast ship" speed="7.72" length="15.42" shape="3461.79,1216.33 3461.07,1221.71 3461.63,1225.54 3463.46,1227.83 3466.56,1228.56"/>
    </edge>
    <edge id=":cluster_26496834_26496835_26496836_26496837_12" function="internal">
        <lane id=":cluster_26496834_26496835_26496836_26496837_12_0" index="0" disallow="tram rail_urban rail rail_electric rail_fast ship" speed="27.78" length="34.45" shape="3458.68,1215.60 3457.23,1225.04 3457.05,1232.65 3457.12,1240.31 3456.40,1249.88"/>
        <lane id=":cluster_26496834_26496835_26496836_26496837_12_1" index="1" disallow="tram rail_urban rail rail_electric rail_fast ship" speed="27.78" length="34.45" shape="3458.68,1215.60 3456.73,1224.98 3455.46,1232.45 3454.44,1239.96 3453.22,1249.47"/>