<?xml version="1.0" encoding="UTF-8"?>

<!-- generated on 2023-04-23 20:42:34 by Eclipse SUMO netedit Version 1.16.0
-->

<routes xmlns:xsi="http://www.w3.org/2001/XMLSchema-instance" xsi:noNamespaceSchemaLocation="http://sumo.dlr.de/xsd/routes_file.xsd">
    <!-- Vehicles, persons and containers (sorted by depart) -->
    <flow id="f_0" begin="0.00" from="4350453#2" to="673029551#1" via="674577847#1 674577847#3 674577847#5 834097579#2 834097579#5 331183273#1" end="900.00" vehsPerHour="350.00"/>
    <flow id="f_1" begin="0.00" from="571884279#1" to="673029536#8" via="514391102 4350454 831638481#1 831638481#3 673029536#3 673029536#6" end="900.00" vehsPerHour="349.99"/>
    <flow id="f_10" begin="0.00" from="585017417#0.578" to="4856249#7" via="674577847#3" end="3600.00" vehsPerHour="240.00"/>
    <flow id="f_11" begin="0.00" from="-4856249#8.663" to="504565897#4" via="674577847#5" end="3600.00" vehsPerHour="240.00"/>
    <flow id="f_12" begin="0.00" from="674359419#0" to="578410814#5" via="834097579#2" end="3600.00" vehsPerHour="240.00"/>
    <flow id="f_13" begin="0.00" from="-578410814#7.241" to="594458432#0" via="834097579#5" end="3600.00" vehsPerHour="240.00"/>
    <flow id="f_14" begin="0.00" from="576780820#1.55" to="514391101#1" via="331183273#1" end="3600.00" vehsPerHour="240.00"/>
    <flow id="f_15" begin="0.00" from="-514391101#2.33" to="673029551#1" end="3600.00" vehsPerHour="240.00"/>
    <flow id="f_16" begin="0.00" from="571884279#1" to="-594805183#1" end="3600.00" vehsPerHour="240.00"/>
    <flow id="f_17" begin="0.00" from="594805183#0" to="594458434" via="514391102" end="3600.00" vehsPerHour="240.00"/>
    <flow id="f_18" begin="0.00" from="594805179#0" to="-578410814#3" via="4350454" end="3600.00" vehsPerHour="240.00"/>
    <flow id="f_19" begin="0.00" from="578410814#1" to="674359419#2" via="831638481#1" end="3600.00" vehsPerHour="240.00"/>
    <flow id="f_20" begin="0.00" from="504565897#0" to="-4856249#5" via="831638481#3" end="3600.00" vehsPerHour="240.00"/>
    <flow id="f_21" begin="0.00" from="4856249#0.1515" to="585017417#2" via="673029536#3" end="3600.00" vehsPerHour="240.00"/>
    <flow id="f_22" begin="0.00" from="595988776#0.556" to="578316484#2" via="673029536#6" end="3600.00" vehsPerHour="240.00"/>
    <flow id="f_23" begin="0.00" from="-578316484#2" to="673029536#8" end="3600.00" vehsPerHour="240.00"/>
    <flow id="f_24" begin="0.00" from="4350453#2" to="578316484#2" end="900.00" vehsPerHour="240.00"/>
    <flow id="f_25" begin="0.00" from="-578316484#2" to="585017417#2" via="674577847#1" end="900.00" vehsPerHour="350.00"/>
    <flow id="f_26" begin="0.00" from="595988776#0.556" to="-4856249#5" via="674577847#3" end="900.00" vehsPerHour="270.01"/>
    <flow id="f_27" begin="0.00" from="4856249#0.1515" to="674359419#2" via="674577847#5" end="900.00" vehsPerHour="270.01"/>
    <flow id="f_28" begin="0.00" from="504565897#0" to="-578410814#3" via="834097579#2" end="900.00" vehsPerHour="360.00"/>
    <flow id="f_29" begin="0.00" from="578410814#1" to="594458434" via="834097579#5" end="900.00" vehsPerHour="320.00"/>
    <flow id="f_30" begin="0.00" from="594805179#0" to="-594805183#1" via="331183273#1" end="900.00" vehsPerHour="320.00"/>
    <flow id="f_31" begin="0.00" from="594805183#0" to="673029551#1" end="900.00" vehsPerHour="180.00"/>
    <flow id="f_32" begin="0.00" from="571884279#1" to="514391101#1" end="900.00" vehsPerHour="180.00"/>
    <flow id="f_33" begin="0.00" from="-514391101#2.33" to="594458432#0" via="514391102" end="900.00" vehsPerHour="250.00"/>
    <flow id="f_34" begin="0.00" from="576780820#1.55" to="578410814#5" via="4350454" end="900.00" vehsPerHour="270.01"/>
    <flow id="f_35" begin="0.00" from="-578410814#7.241" to="504565897#4" via="831638481#1" end="900.00" vehsPerHour="290.00"/>
    <flow id="f_36" begin="0.00" from="674359419#0" to="4856249#7" via="831638481#3" end="900.00" vehsPerHour="270.00"/>
    <flow id="f_37" begin="0.00" from="-4856249#8.663" to="595988776#5" via="673029536#3" end="900.00" vehsPerHour="290.00"/>
    <flow id="f_38" begin="0.00" from="585017417#0.578" to="-578316484#0" via="673029536#6" end="900.00" vehsPerHour="280.00"/>
    <flow id="f_39" begin="0.00" from="578316484#0.702" to="673029536#8" end="900.00" vehsPerHour="290.00"/>
    <flow id="f_8" begin="0.00" from="4350453#2" to="-578316484#0" end="3600.00" vehsPerHour="240.00"/>
    <flow id="f_9" begin="0.00" from="578316484#0.702" to="595988776#5" via="674577847#1" end="3600.00" vehsPerHour="340.00"/>
    <flow id="f_2" begin="900.00" from="571884279#1" to="673029536#8" via="514391102 4350454 831638481#1 831638481#3 673029536#3 673029536#6" end="1800.00" vehsPerHour="320.00"/>
    <flow id="f_3" begin="900.00" from="4350453#2" to="673029551#1" via="674577847#1 674577847#3 674577847#5 834097579#2 834097579#5 331183273#1" end="1800.00" vehsPerHour="350.00"/>
    <flow id="f_40" begin="900.00" from="-578316484#2" to="673029536#8" end="1800.00" vehsPerHour="290.00"/>
    <flow id="f_41" begin="900.00" from="-578316484#2" to="585017417#2" via="674577847#1" end="1800.00" vehsPerHour="290.00"/>
    <flow id="f_42" begin="900.00" from="595988776#0.556" to="-4856249#5" via="674577847#3" end="1800.00" vehsPerHour="320.00"/>
    <flow id="f_43" begin="900.00" from="4856249#0.1515" to="674359419#2" via="674577847#5" end="1800.00" vehsPerHour="270.00"/>
    <flow id="f_44" begin="900.00" from="504565897#0" to="-578410814#3" via="834097579#2" end="1800.00" vehsPerHour="350.00"/>
    <flow id="f_45" begin="900.00" from="578410814#1" to="594458434" via="834097579#5" end="1800.00" vehsPerHour="340.00"/>
    <flow id="f_46" begin="900.00" from="594805179#0" to="-594805183#1" via="331183273#1" end="1800.00" vehsPerHour="320.00"/>
    <flow id="f_47" begin="900.00" from="571884279#1" to="514391101#1" end="1800.00" vehsPerHour="180.00"/>
    <flow id="f_48" begin="900.00" from="-514391101#2.33" to="594458432#0" via="514391102" end="1800.00" vehsPerHour="300.00"/>
    <flow id="f_49" begin="900.00" from="576780820#1.55" to="578410814#5" via="4350454" end="1800.00" vehsPerHour="330.00"/>
    <flow id="f_50" begin="900.00" from="-578410814#7.241" to="504565897#4" via="831638481#1" end="1800.00" vehsPerHour="250.00"/>
    <flow id="f_51" begin="900.00" from="674359419#0" to="4856249#7" via="831638481#3" end="1800.00" vehsPerHour="270.01"/>
    <flow id="f_52" begin="900.00" from="-4856249#8.663" to="595988776#5" via="673029536#3" end="1800.00" vehsPerHour="250.00"/>
    <flow id="f_53" begin="900.00" from="585017417#0.578" to="-578316484#0" via="673029536#6" end="1800.00" vehsPerHour="260.00"/>
    <flow id="f_54" begin="900.00" from="578316484#0.702" to="673029536#8" end="1800.00" vehsPerHour="190.00"/>
    <flow id="f_4" begin="1800.00" from="571884279#1" to="673029536#8" via="514391102 4350454 831638481#1 831638481#3 673029536#3 673029536#6" end="2700.00" vehsPerHour="360.00"/>
    <flow id="f_5" begin="1800.00" from="4350453#2" to="673029551#1" via="674577847#1 674577847#3 674577847#5 834097579#2 834097579#5 331183273#1" end="2700.00" vehsPerHour="320.00"/>
    <flow id="f_55" begin="1800.00" from="-578316484#2" to="585017417#2" via="674577847#1" end="3600.00" vehsPerHour="360.00"/>
    <flow id="f_56" begin="1800.00" from="595988776#0.556" to="-4856249#5" via="674577847#3" end="3600.00" vehsPerHour="330.00"/>
    <flow id="f_57" begin="1800.00" from="4856249#0.1515" to="674359419#2" via="674577847#5" end="3600.00" vehsPerHour="250.00"/>
    <flow id="f_58" begin="1800.00" from="504565897#0" to="-578410814#3" via="834097579#2" end="3600.00" vehsPerHour="320.00"/>
    <flow id="f_59" begin="1800.00" from="578410814#1" to="594458434" via="834097579#5" end="3600.00" vehsPerHour="240.00"/>
    <flow id="f_60" begin="1800.00" from="594805179#0" to="-594805183#1" via="331183273#1" end="3600.00" vehsPerHour="240.00"/>
    <flow id="f_61" begin="1800.00" from="594805183#0" to="673029551#1" end="3600.00" vehsPerHour="240.00"/>
    <flow id="f_62" begin="1800.00" from="571884279#1" to="514391101#1" end="3600.00" vehsPerHour="180.00"/>
    <flow id="f_63" begin="1800.00" from="-514391101#2.33" to="594458432#0" via="514391102" end="3600.00" vehsPerHour="285.00"/>
    <flow id="f_64" begin="1800.00" from="576780820#1.55" to="578410814#5" via="4350454" end="3600.00" vehsPerHour="310.00"/>
    <flow id="f_65" begin="1800.00" from="-578410814#7.241" to="504565897#4" via="831638481#1" end="3600.00" vehsPerHour="240.00"/>
    <flow id="f_66" begin="1800.00" from="674359419#0" to="4856249#7" via="831638481#3" end="3600.00" vehsPerHour="200.00"/>
    <flow id="f_67" begin="1800.00" from="-4856249#8.663" to="595988776#5" via="673029536#3" end="3600.00" vehsPerHour="235.00"/>
    <flow id="f_68" begin="1800.00" from="585017417#0.578" to="-578316484#0" via="673029536#6" end="3600.00" vehsPerHour="340.00"/>
    <flow id="f_69" begin="1800.00" from="578316484#0.702" to="673029536#8" end="3600.00" vehsPerHour="180.00"/>
    <flow id="f_6" begin="2700.00" from="571884279#1" to="673029536#8" via="514391102 4350454 831638481#1 831638481#3 673029536#3 673029536#6" end="3600.00" vehsPerHour="270.01"/>
    <flow id="f_7" begin="2700.00" from="4350453#2" to="673029551#1" via="674577847#1 674577847#3 674577847#5 834097579#2 834097579#5 331183273#1" end="3600.00" vehsPerHour="320.00"/>
</routes>
