<additional>
  <tlLogic id="GS_cluster_9528742117_9528742118" programID="Metro" offset="0" type="static">

    <phase duration="100"  state="gggGGGrrrgggrrrrrrgggGGGrrrgggrrrrrr"/>
    <phase duration="100"  state="gggrrrrrrgggGGGrrrgggrrrrrrgggGGGrrr"/>
    <phase duration="100"  state="gggrrrGGGgggrrrrrrgggrrrGGGgggrrrrrr"/>
    <phase duration="100"  state="gggrrrrrrgggrrrGGGgggrrrrrrgggrrrGGG"/>
    <phase duration="100"  state="gggGGGGGGgggrrrrrrgggrrrrrrgggrrrrrr"/>
    <phase duration="100"  state="gggrrrrrrgggGGGGGGgggrrrrrrgggrrrrrr"/>
    <phase duration="100"  state="gggrrrrrrgggrrrrrrgggGGGGGGgggrrrrrr"/>
    <phase duration="100"  state="gggrrrrrrgggrrrrrrgggrrrrrrgggGGGGGG"/>

    <phase duration="100"  state="gggyyyrrrgggrrrrrrgggyyyrrrgggrrrrrr"/>
    <phase duration="100"  state="gggGGGrrrgggrrrrrrgggyyyrrrgggrrrrrr"/>
    <phase duration="100"  state="gggyyyrrrgggrrrrrrgggGGGrrrgggrrrrrr"/>

    <phase duration="100"  state="gggrrrrrrgggyyyrrrgggrrrrrrgggyyyrrr" />
    <phase duration="100"  state="gggrrrrrrgggGGGrrrgggrrrrrrgggyyyrrr" />
    <phase duration="100"  state="gggrrrrrrgggyyyrrrgggrrrrrrgggGGGrrr" />

    <phase duration="100"  state="gggrrryyygggrrrrrrgggrrryyygggrrrrrr" />
    <phase duration="100"  state="gggrrrGGGgggrrrrrrgggrrryyygggrrrrrr" />
    <phase duration="100"  state="gggrrryyygggrrrrrrgggrrrGGGgggrrrrrr" />

    <phase duration="100"  state="gggrrrrrrgggrrryyygggrrrrrrgggrrryyy" />
    <phase duration="100"  state="gggrrrrrrgggrrrGGGgggrrrrrrgggrrryyy" />
    <phase duration="100"  state="gggrrrrrrgggrrryyygggrrrrrrgggrrrGGG" />

    <phase duration="100"  state="gggGGGyyygggrrrrrrgggrrrrrrgggrrrrrr" />
    <phase duration="100"  state="gggyyyGGGgggrrrrrrgggrrrrrrgggrrrrrr" />
    <phase duration="100"  state="gggyyyyyygggrrrrrrgggrrrrrrgggrrrrrr" />

    <phase duration="100"  state="gggrrrrrrgggyyyyyygggrrrrrrgggrrrrrr" />
    <phase duration="100"  state="gggrrrrrrgggGGGyyygggrrrrrrgggrrrrrr" />
    <phase duration="100"  state="gggrrrrrrgggyyyGGGgggrrrrrrgggrrrrrr" />

    <phase duration="100"  state="gggrrrrrrgggrrrrrrgggGGGyyygggrrrrrr" />
    <phase duration="100"  state="gggrrrrrrgggrrrrrrgggyyyyyygggrrrrrr" />
    <phase duration="100"  state="gggrrrrrrgggrrrrrrgggyyyGGGgggrrrrrr" />

    <phase duration="100"  state="gggrrrrrrgggrrrrrrgggrrrrrrgggyyyyyy" />
    <phase duration="100"  state="gggrrrrrrgggrrrrrrgggrrrrrrgggGGGyyy" />
    <phase duration="100"  state="gggrrrrrrgggrrrrrrgggrrrrrrgggyyyGGG" />

  </tlLogic>

    <tlLogic id="cluster_271685895_271685900" programID="Metro" offset="0" type="static">
      <phase duration="100"  state="gggGGGrrrgggrrrrrrgggGGGrrrgggrrrrrr"/>
    <phase duration="100"  state="gggrrrrrrgggGGGrrrgggrrrrrrgggGGGrrr"/>
    <phase duration="100"  state="gggrrrGGGgggrrrrrrgggrrrGGGgggrrrrrr"/>
    <phase duration="100"  state="gggrrrrrrgggrrrGGGgggrrrrrrgggrrrGGG"/>
    <phase duration="100"  state="gggGGGGGGgggrrrrrrgggrrrrrrgggrrrrrr"/>
    <phase duration="100"  state="gggrrrrrrgggGGGGGGgggrrrrrrgggrrrrrr"/>
    <phase duration="100"  state="gggrrrrrrgggrrrrrrgggGGGGGGgggrrrrrr"/>
    <phase duration="100"  state="gggrrrrrrgggrrrrrrgggrrrrrrgggGGGGGG"/>

    <phase duration="100"  state="gggyyyrrrgggrrrrrrgggyyyrrrgggrrrrrr"/>
    <phase duration="100"  state="gggGGGrrrgggrrrrrrgggyyyrrrgggrrrrrr"/>
    <phase duration="100"  state="gggyyyrrrgggrrrrrrgggGGGrrrgggrrrrrr"/>

    <phase duration="100"  state="gggrrrrrrgggyyyrrrgggrrrrrrgggyyyrrr" />
    <phase duration="100"  state="gggrrrrrrgggGGGrrrgggrrrrrrgggyyyrrr" />
    <phase duration="100"  state="gggrrrrrrgggyyyrrrgggrrrrrrgggGGGrrr" />

    <phase duration="100"  state="gggrrryyygggrrrrrrgggrrryyygggrrrrrr" />
    <phase duration="100"  state="gggrrrGGGgggrrrrrrgggrrryyygggrrrrrr" />
    <phase duration="100"  state="gggrrryyygggrrrrrrgggrrrGGGgggrrrrrr" />

    <phase duration="100"  state="gggrrrrrrgggrrryyygggrrrrrrgggrrryyy" />
    <phase duration="100"  state="gggrrrrrrgggrrrGGGgggrrrrrrgggrrryyy" />
    <phase duration="100"  state="gggrrrrrrgggrrryyygggrrrrrrgggrrrGGG" />

    <phase duration="100"  state="gggGGGyyygggrrrrrrgggrrrrrrgggrrrrrr" />
    <phase duration="100"  state="gggyyyGGGgggrrrrrrgggrrrrrrgggrrrrrr" />
    <phase duration="100"  state="gggyyyyyygggrrrrrrgggrrrrrrgggrrrrrr" />

    <phase duration="100"  state="gggrrrrrrgggyyyyyygggrrrrrrgggrrrrrr" />
    <phase duration="100"  state="gggrrrrrrgggGGGyyygggrrrrrrgggrrrrrr" />
    <phase duration="100"  state="gggrrrrrrgggyyyGGGgggrrrrrrgggrrrrrr" />

    <phase duration="100"  state="gggrrrrrrgggrrrrrrgggGGGyyygggrrrrrr" />
    <phase duration="100"  state="gggrrrrrrgggrrrrrrgggyyyyyygggrrrrrr" />
    <phase duration="100"  state="gggrrrrrrgggrrrrrrgggyyyGGGgggrrrrrr" />

    <phase duration="100"  state="gggrrrrrrgggrrrrrrgggrrrrrrgggyyyyyy" />
    <phase duration="100"  state="gggrrrrrrgggrrrrrrgggrrrrrrgggGGGyyy" />
    <phase duration="100"  state="gggrrrrrrgggrrrrrrgggrrrrrrgggyyyGGG" />
  </tlLogic>

    <tlLogic id="cluster_27127956_27127967_332556586_332556588" programID="Metro" offset="0" type="static">
       <phase duration="100"  state="gggGGGrrrgggrrrrrrgggGGGrrrgggrrrrrr"/>
    <phase duration="100"  state="gggrrrrrrgggGGGrrrgggrrrrrrgggGGGrrr"/>
    <phase duration="100"  state="gggrrrGGGgggrrrrrrgggrrrGGGgggrrrrrr"/>
    <phase duration="100"  state="gggrrrrrrgggrrrGGGgggrrrrrrgggrrrGGG"/>
    <phase duration="100"  state="gggGGGGGGgggrrrrrrgggrrrrrrgggrrrrrr"/>
    <phase duration="100"  state="gggrrrrrrgggGGGGGGgggrrrrrrgggrrrrrr"/>
    <phase duration="100"  state="gggrrrrrrgggrrrrrrgggGGGGGGgggrrrrrr"/>
    <phase duration="100"  state="gggrrrrrrgggrrrrrrgggrrrrrrgggGGGGGG"/>

    <phase duration="100"  state="gggyyyrrrgggrrrrrrgggyyyrrrgggrrrrrr"/>
    <phase duration="100"  state="gggGGGrrrgggrrrrrrgggyyyrrrgggrrrrrr"/>
    <phase duration="100"  state="gggyyyrrrgggrrrrrrgggGGGrrrgggrrrrrr"/>

    <phase duration="100"  state="gggrrrrrrgggyyyrrrgggrrrrrrgggyyyrrr" />
    <phase duration="100"  state="gggrrrrrrgggGGGrrrgggrrrrrrgggyyyrrr" />
    <phase duration="100"  state="gggrrrrrrgggyyyrrrgggrrrrrrgggGGGrrr" />

    <phase duration="100"  state="gggrrryyygggrrrrrrgggrrryyygggrrrrrr" />
    <phase duration="100"  state="gggrrrGGGgggrrrrrrgggrrryyygggrrrrrr" />
    <phase duration="100"  state="gggrrryyygggrrrrrrgggrrrGGGgggrrrrrr" />

    <phase duration="100"  state="gggrrrrrrgggrrryyygggrrrrrrgggrrryyy" />
    <phase duration="100"  state="gggrrrrrrgggrrrGGGgggrrrrrrgggrrryyy" />
    <phase duration="100"  state="gggrrrrrrgggrrryyygggrrrrrrgggrrrGGG" />

    <phase duration="100"  state="gggGGGyyygggrrrrrrgggrrrrrrgggrrrrrr" />
    <phase duration="100"  state="gggyyyGGGgggrrrrrrgggrrrrrrgggrrrrrr" />
    <phase duration="100"  state="gggyyyyyygggrrrrrrgggrrrrrrgggrrrrrr" />

    <phase duration="100"  state="gggrrrrrrgggyyyyyygggrrrrrrgggrrrrrr" />
    <phase duration="100"  state="gggrrrrrrgggGGGyyygggrrrrrrgggrrrrrr" />
    <phase duration="100"  state="gggrrrrrrgggyyyGGGgggrrrrrrgggrrrrrr" />

    <phase duration="100"  state="gggrrrrrrgggrrrrrrgggGGGyyygggrrrrrr" />
    <phase duration="100"  state="gggrrrrrrgggrrrrrrgggyyyyyygggrrrrrr" />
    <phase duration="100"  state="gggrrrrrrgggrrrrrrgggyyyGGGgggrrrrrr" />

    <phase duration="100"  state="gggrrrrrrgggrrrrrrgggrrrrrrgggyyyyyy" />
    <phase duration="100"  state="gggrrrrrrgggrrrrrrgggrrrrrrgggGGGyyy" />
    <phase duration="100"  state="gggrrrrrrgggrrrrrrgggrrrrrrgggyyyGGG" />
  </tlLogic>

    <tlLogic id="cluster_26496834_26496835_26496836_26496837" programID="Metro" offset="0" type="static">
        <phase duration="100"  state="gggGGGrrrgggrrrrrrgggGGGrrrgggrrrrrr"/>
    <phase duration="100"  state="gggrrrrrrgggGGGrrrgggrrrrrrgggGGGrrr"/>
    <phase duration="100"  state="gggrrrGGGgggrrrrrrgggrrrGGGgggrrrrrr"/>
    <phase duration="100"  state="gggrrrrrrgggrrrGGGgggrrrrrrgggrrrGGG"/>
    <phase duration="100"  state="gggGGGGGGgggrrrrrrgggrrrrrrgggrrrrrr"/>
    <phase duration="100"  state="gggrrrrrrgggGGGGGGgggrrrrrrgggrrrrrr"/>
    <phase duration="100"  state="gggrrrrrrgggrrrrrrgggGGGGGGgggrrrrrr"/>
    <phase duration="100"  state="gggrrrrrrgggrrrrrrgggrrrrrrgggGGGGGG"/>

    <phase duration="100"  state="gggyyyrrrgggrrrrrrgggyyyrrrgggrrrrrr"/>
    <phase duration="100"  state="gggGGGrrrgggrrrrrrgggyyyrrrgggrrrrrr"/>
    <phase duration="100"  state="gggyyyrrrgggrrrrrrgggGGGrrrgggrrrrrr"/>

    <phase duration="100"  state="gggrrrrrrgggyyyrrrgggrrrrrrgggyyyrrr" />
    <phase duration="100"  state="gggrrrrrrgggGGGrrrgggrrrrrrgggyyyrrr" />
    <phase duration="100"  state="gggrrrrrrgggyyyrrrgggrrrrrrgggGGGrrr" />

    <phase duration="100"  state="gggrrryyygggrrrrrrgggrrryyygggrrrrrr" />
    <phase duration="100"  state="gggrrrGGGgggrrrrrrgggrrryyygggrrrrrr" />
    <phase duration="100"  state="gggrrryyygggrrrrrrgggrrrGGGgggrrrrrr" />

    <phase duration="100"  state="gggrrrrrrgggrrryyygggrrrrrrgggrrryyy" />
    <phase duration="100"  state="gggrrrrrrgggrrrGGGgggrrrrrrgggrrryyy" />
    <phase duration="100"  state="gggrrrrrrgggrrryyygggrrrrrrgggrrrGGG" />

    <phase duration="100"  state="gggGGGyyygggrrrrrrgggrrrrrrgggrrrrrr" />
    <phase duration="100"  state="gggyyyGGGgggrrrrrrgggrrrrrrgggrrrrrr" />
    <phase duration="100"  state="gggyyyyyygggrrrrrrgggrrrrrrgggrrrrrr" />

    <phase duration="100"  state="gggrrrrrrgggyyyyyygggrrrrrrgggrrrrrr" />
    <phase duration="100"  state="gggrrrrrrgggGGGyyygggrrrrrrgggrrrrrr" />
    <phase duration="100"  state="gggrrrrrrgggyyyGGGgggrrrrrrgggrrrrrr" />

    <phase duration="100"  state="gggrrrrrrgggrrrrrrgggGGGyyygggrrrrrr" />
    <phase duration="100"  state="gggrrrrrrgggrrrrrrgggyyyyyygggrrrrrr" />
    <phase duration="100"  state="gggrrrrrrgggrrrrrrgggyyyGGGgggrrrrrr" />

    <phase duration="100"  state="gggrrrrrrgggrrrrrrgggrrrrrrgggyyyyyy" />
    <phase duration="100"  state="gggrrrrrrgggrrrrrrgggrrrrrrgggGGGyyy" />
    <phase duration="100"  state="gggrrrrrrgggrrrrrrgggrrrrrrgggyyyGGG" />
  </tlLogic>

    <tlLogic id="cluster_31319857_313481271" programID="Metro" offset="0" type="static">
       <phase duration="100"  state="gggGGGrrrgggrrrrrrgggGGGrrrgggrrrrrr"/>
    <phase duration="100"  state="gggrrrrrrgggGGGrrrgggrrrrrrgggGGGrrr"/>
    <phase duration="100"  state="gggrrrGGGgggrrrrrrgggrrrGGGgggrrrrrr"/>
    <phase duration="100"  state="gggrrrrrrgggrrrGGGgggrrrrrrgggrrrGGG"/>
    <phase duration="100"  state="gggGGGGGGgggrrrrrrgggrrrrrrgggrrrrrr"/>
    <phase duration="100"  state="gggrrrrrrgggGGGGGGgggrrrrrrgggrrrrrr"/>
    <phase duration="100"  state="gggrrrrrrgggrrrrrrgggGGGGGGgggrrrrrr"/>
    <phase duration="100"  state="gggrrrrrrgggrrrrrrgggrrrrrrgggGGGGGG"/>

    <phase duration="100"  state="gggyyyrrrgggrrrrrrgggyyyrrrgggrrrrrr"/>
    <phase duration="100"  state="gggGGGrrrgggrrrrrrgggyyyrrrgggrrrrrr"/>
    <phase duration="100"  state="gggyyyrrrgggrrrrrrgggGGGrrrgggrrrrrr"/>

    <phase duration="100"  state="gggrrrrrrgggyyyrrrgggrrrrrrgggyyyrrr" />
    <phase duration="100"  state="gggrrrrrrgggGGGrrrgggrrrrrrgggyyyrrr" />
    <phase duration="100"  state="gggrrrrrrgggyyyrrrgggrrrrrrgggGGGrrr" />

    <phase duration="100"  state="gggrrryyygggrrrrrrgggrrryyygggrrrrrr" />
    <phase duration="100"  state="gggrrrGGGgggrrrrrrgggrrryyygggrrrrrr" />
    <phase duration="100"  state="gggrrryyygggrrrrrrgggrrrGGGgggrrrrrr" />

    <phase duration="100"  state="gggrrrrrrgggrrryyygggrrrrrrgggrrryyy" />
    <phase duration="100"  state="gggrrrrrrgggrrrGGGgggrrrrrrgggrrryyy" />
    <phase duration="100"  state="gggrrrrrrgggrrryyygggrrrrrrgggrrrGGG" />

    <phase duration="100"  state="gggGGGyyygggrrrrrrgggrrrrrrgggrrrrrr" />
    <phase duration="100"  state="gggyyyGGGgggrrrrrrgggrrrrrrgggrrrrrr" />
    <phase duration="100"  state="gggyyyyyygggrrrrrrgggrrrrrrgggrrrrrr" />

    <phase duration="100"  state="gggrrrrrrgggyyyyyygggrrrrrrgggrrrrrr" />
    <phase duration="100"  state="gggrrrrrrgggGGGyyygggrrrrrrgggrrrrrr" />
    <phase duration="100"  state="gggrrrrrrgggyyyGGGgggrrrrrrgggrrrrrr" />

    <phase duration="100"  state="gggrrrrrrgggrrrrrrgggGGGyyygggrrrrrr" />
    <phase duration="100"  state="gggrrrrrrgggrrrrrrgggyyyyyygggrrrrrr" />
    <phase duration="100"  state="gggrrrrrrgggrrrrrrgggyyyGGGgggrrrrrr" />

    <phase duration="100"  state="gggrrrrrrgggrrrrrrgggrrrrrrgggyyyyyy" />
    <phase duration="100"  state="gggrrrrrrgggrrrrrrgggrrrrrrgggGGGyyy" />
    <phase duration="100"  state="gggrrrrrrgggrrrrrrgggrrrrrrgggyyyGGG" />
  </tlLogic>

    <tlLogic id="cluster_262909297_3382408993_3382408994_3382408995" programID="Metro" offset="0" type="static">
       <phase duration="100"  state="gggGGGrrrgggrrrrrrgggGGGrrrgggrrrrrr"/>
    <phase duration="100"  state="gggrrrrrrgggGGGrrrgggrrrrrrgggGGGrrr"/>
    <phase duration="100"  state="gggrrrGGGgggrrrrrrgggrrrGGGgggrrrrrr"/>
    <phase duration="100"  state="gggrrrrrrgggrrrGGGgggrrrrrrgggrrrGGG"/>
    <phase duration="100"  state="gggGGGGGGgggrrrrrrgggrrrrrrgggrrrrrr"/>
    <phase duration="100"  state="gggrrrrrrgggGGGGGGgggrrrrrrgggrrrrrr"/>
    <phase duration="100"  state="gggrrrrrrgggrrrrrrgggGGGGGGgggrrrrrr"/>
    <phase duration="100"  state="gggrrrrrrgggrrrrrrgggrrrrrrgggGGGGGG"/>

    <phase duration="100"  state="gggyyyrrrgggrrrrrrgggyyyrrrgggrrrrrr"/>
    <phase duration="100"  state="gggGGGrrrgggrrrrrrgggyyyrrrgggrrrrrr"/>
    <phase duration="100"  state="gggyyyrrrgggrrrrrrgggGGGrrrgggrrrrrr"/>

    <phase duration="100"  state="gggrrrrrrgggyyyrrrgggrrrrrrgggyyyrrr" />
    <phase duration="100"  state="gggrrrrrrgggGGGrrrgggrrrrrrgggyyyrrr" />
    <phase duration="100"  state="gggrrrrrrgggyyyrrrgggrrrrrrgggGGGrrr" />

    <phase duration="100"  state="gggrrryyygggrrrrrrgggrrryyygggrrrrrr" />
    <phase duration="100"  state="gggrrrGGGgggrrrrrrgggrrryyygggrrrrrr" />
    <phase duration="100"  state="gggrrryyygggrrrrrrgggrrrGGGgggrrrrrr" />

    <phase duration="100"  state="gggrrrrrrgggrrryyygggrrrrrrgggrrryyy" />
    <phase duration="100"  state="gggrrrrrrgggrrrGGGgggrrrrrrgggrrryyy" />
    <phase duration="100"  state="gggrrrrrrgggrrryyygggrrrrrrgggrrrGGG" />

    <phase duration="100"  state="gggGGGyyygggrrrrrrgggrrrrrrgggrrrrrr" />
    <phase duration="100"  state="gggyyyGGGgggrrrrrrgggrrrrrrgggrrrrrr" />
    <phase duration="100"  state="gggyyyyyygggrrrrrrgggrrrrrrgggrrrrrr" />

    <phase duration="100"  state="gggrrrrrrgggyyyyyygggrrrrrrgggrrrrrr" />
    <phase duration="100"  state="gggrrrrrrgggGGGyyygggrrrrrrgggrrrrrr" />
    <phase duration="100"  state="gggrrrrrrgggyyyGGGgggrrrrrrgggrrrrrr" />

    <phase duration="100"  state="gggrrrrrrgggrrrrrrgggGGGyyygggrrrrrr" />
    <phase duration="100"  state="gggrrrrrrgggrrrrrrgggyyyyyygggrrrrrr" />
    <phase duration="100"  state="gggrrrrrrgggrrrrrrgggyyyGGGgggrrrrrr" />

    <phase duration="100"  state="gggrrrrrrgggrrrrrrgggrrrrrrgggyyyyyy" />
    <phase duration="100"  state="gggrrrrrrgggrrrrrrgggrrrrrrgggGGGyyy" />
    <phase duration="100"  state="gggrrrrrrgggrrrrrrgggrrrrrrgggyyyGGG" />
  </tlLogic>


  <tlLogic id="cluster_26197704_3382408997" programID="Metro" offset="0" type="static">
        <phase duration="100"  state="gggGGGrrrgggrrrrrrgggGGGrrrgggrrrrrr"/>
    <phase duration="100"  state="gggrrrrrrgggGGGrrrgggrrrrrrgggGGGrrr"/>
    <phase duration="100"  state="gggrrrGGGgggrrrrrrgggrrrGGGgggrrrrrr"/>
    <phase duration="100"  state="gggrrrrrrgggrrrGGGgggrrrrrrgggrrrGGG"/>
    <phase duration="100"  state="gggGGGGGGgggrrrrrrgggrrrrrrgggrrrrrr"/>
    <phase duration="100"  state="gggrrrrrrgggGGGGGGgggrrrrrrgggrrrrrr"/>
    <phase duration="100"  state="gggrrrrrrgggrrrrrrgggGGGGGGgggrrrrrr"/>
    <phase duration="100"  state="gggrrrrrrgggrrrrrrgggrrrrrrgggGGGGGG"/>

    <phase duration="100"  state="gggyyyrrrgggrrrrrrgggyyyrrrgggrrrrrr"/>
    <phase duration="100"  state="gggGGGrrrgggrrrrrrgggyyyrrrgggrrrrrr"/>
    <phase duration="100"  state="gggyyyrrrgggrrrrrrgggGGGrrrgggrrrrrr"/>

    <phase duration="100"  state="gggrrrrrrgggyyyrrrgggrrrrrrgggyyyrrr" />
    <phase duration="100"  state="gggrrrrrrgggGGGrrrgggrrrrrrgggyyyrrr" />
    <phase duration="100"  state="gggrrrrrrgggyyyrrrgggrrrrrrgggGGGrrr" />

    <phase duration="100"  state="gggrrryyygggrrrrrrgggrrryyygggrrrrrr" />
    <phase duration="100"  state="gggrrrGGGgggrrrrrrgggrrryyygggrrrrrr" />
    <phase duration="100"  state="gggrrryyygggrrrrrrgggrrrGGGgggrrrrrr" />

    <phase duration="100"  state="gggrrrrrrgggrrryyygggrrrrrrgggrrryyy" />
    <phase duration="100"  state="gggrrrrrrgggrrrGGGgggrrrrrrgggrrryyy" />
    <phase duration="100"  state="gggrrrrrrgggrrryyygggrrrrrrgggrrrGGG" />

    <phase duration="100"  state="gggGGGyyygggrrrrrrgggrrrrrrgggrrrrrr" />
    <phase duration="100"  state="gggyyyGGGgggrrrrrrgggrrrrrrgggrrrrrr" />
    <phase duration="100"  state="gggyyyyyygggrrrrrrgggrrrrrrgggrrrrrr" />

    <phase duration="100"  state="gggrrrrrrgggyyyyyygggrrrrrrgggrrrrrr" />
    <phase duration="100"  state="gggrrrrrrgggGGGyyygggrrrrrrgggrrrrrr" />
    <phase duration="100"  state="gggrrrrrrgggyyyGGGgggrrrrrrgggrrrrrr" />

    <phase duration="100"  state="gggrrrrrrgggrrrrrrgggGGGyyygggrrrrrr" />
    <phase duration="100"  state="gggrrrrrrgggrrrrrrgggyyyyyygggrrrrrr" />
    <phase duration="100"  state="gggrrrrrrgggrrrrrrgggyyyGGGgggrrrrrr" />

    <phase duration="100"  state="gggrrrrrrgggrrrrrrgggrrrrrrgggyyyyyy" />
    <phase duration="100"  state="gggrrrrrrgggrrrrrrgggrrrrrrgggGGGyyy" />
    <phase duration="100"  state="gggrrrrrrgggrrrrrrgggrrrrrrgggyyyGGG" />
  </tlLogic>
</additional>