<?xml version="1.0" encoding="UTF-8"?>

<!-- generated on 2023-05-04 10:05:45 by Eclipse SUMO netedit Version 1.16.0
-->

<routes xmlns:xsi="http://www.w3.org/2001/XMLSchema-instance" xsi:noNamespaceSchemaLocation="http://sumo.dlr.de/xsd/routes_file.xsd">
    <!-- Vehicles, persons and containers (sorted by depart) -->
    <flow id="f_0" begin="0.00" from="E5" to="-113467509#1" via="-832118418#0 641126492#3" end="3600.00" vehsPerHour="120.00"/>
    <flow id="f_1" begin="0.00" from="E7" to="353612862#10" via="231177199#2" end="3600.00" vehsPerHour="120.00"/>
    <flow id="f_10" begin="0.00" from="-231177199#8" to="-113467539#1" via="-832118418#0 1015040609#3 -353612854#0 -641126492#1 834989739#1 580853946#2 580853946#5" end="3600.00" vehsPerHour="80.00"/>
    <flow id="f_11" begin="0.00" from="-641126492#4" to="834985795#3" via="965584936#2 1015040609#3 353612854#2 833493239#1 154646651#7" end="3600.00" vehsPerHour="80.00"/>
    <flow id="f_12" begin="0.00" from="834989740#3" to="E11" via="834989738#1 834989736#3 641126492#1 -833493243#4 353612862#5" end="3600.00" vehsPerHour="80.00"/>
    <flow id="f_13" begin="0.00" from="834985796#2" to="E8" via="834985796#6 834985791#3 834985793#1 532529595#2" end="3600.00" vehsPerHour="120.00"/>
    <flow id="f_14" begin="0.00" from="833493245#1" to="E8" via="833493243#5 353612854#2 833493239#1" end="3600.00" vehsPerHour="120.00"/>
    <flow id="f_15" begin="0.00" from="113467539#3" to="1069574886#3" via="965584936#2 965584938#2 231177199#6 1015040650#4" end="3600.00" vehsPerHour="120.00"/>
    <flow id="f_16" begin="0.00" from="505097816#5" to="-231177199#0" via="505097816#8 1015040650#2 -231177199#8 832118418#1 154646651#4 154646651#7 834989740#3" end="3600.00" vehsPerHour="120.00"/>
    <flow id="f_2" begin="0.00" from="154261208" to="-113467539#1" via="154261209#3 -353612854#0 641126492#2 -965584936#1" end="3600.00" vehsPerHour="50.00"/>
    <flow id="f_3" begin="0.00" from="519323439#0" to="E8" via="-231177199#8 -832118418#0 1015040609#3 353612854#2" end="3600.00" vehsPerHour="50.00"/>
    <flow id="f_4" begin="0.00" from="86096922#0" to="154489976#1" via="353612862#0 113467539#3 -641126492#2 -641126492#1" end="3600.00" vehsPerHour="50.00"/>
    <flow id="f_5" begin="0.00" from="-641126492#6" to="830627880#1" via="505097816#8" end="3600.00" vehsPerHour="50.00"/>
    <flow id="f_6" begin="0.00" from="641126492#6" to="154646651#10" via="965584938#2 -231177199#5 -231177199#3" end="3600.00" vehsPerHour="50.00"/>
    <flow id="f_7" begin="0.00" from="86096922#0" to="1015040609#9" via="-641126492#4 -641126492#2 -641126492#1" end="3600.00" vehsPerHour="50.00"/>
    <flow id="f_8" begin="0.00" from="113467539#0" to="E11" via="833493245#1 -641126492#1" end="3600.00" vehsPerHour="50.00"/>
    <flow id="f_9" begin="0.00" from="-113467539#1" to="-113467509#1" end="3600.00" vehsPerHour="50.00"/>
</routes>
