<additional>
  <tlLogic id="1286462346" programID="Metro" offset="0" type="static">

    <phase duration="100"  state="gggGGGrrrgggrrrrrrgggGGGrrrgggrrrrrr"/>
    <phase duration="100"  state="gggrrrrrrgggGGGrrrgggrrrrrrgggGGGrrr"/>
    <phase duration="100"  state="gggrrrGGGgggrrrrrrgggrrrGGGgggrrrrrr"/>
    <phase duration="100"  state="gggrrrrrrgggrrrGGGgggrrrrrrgggrrrGGG"/>
    <phase duration="100"  state="gggGGGGGGgggrrrrrrgggrrrrrrgggrrrrrr"/>
    <phase duration="100"  state="gggrrrrrrgggGGGGGGgggrrrrrrgggrrrrrr"/>
    <phase duration="100"  state="gggrrrrrrgggrrrrrrgggGGGGGGgggrrrrrr"/>
    <phase duration="100"  state="gggrrrrrrgggrrrrrrgggrrrrrrgggGGGGGG"/>

    <phase duration="100"  state="gggyyyrrrgggrrrrrrgggyyyrrrgggrrrrrr"/>
    <phase duration="100"  state="gggGGGrrrgggrrrrrrgggyyyrrrgggrrrrrr"/>
    <phase duration="100"  state="gggyyyrrrgggrrrrrrgggGGGrrrgggrrrrrr"/>

    <phase duration="100"  state="gggrrrrrrgggyyyrrrgggrrrrrrgggyyyrrr" />
    <phase duration="100"  state="gggrrrrrrgggGGGrrrgggrrrrrrgggyyyrrr" />
    <phase duration="100"  state="gggrrrrrrgggyyyrrrgggrrrrrrgggGGGrrr" />

    <phase duration="100"  state="gggrrryyygggrrrrrrgggrrryyygggrrrrrr" />
    <phase duration="100"  state="gggrrrGGGgggrrrrrrgggrrryyygggrrrrrr" />
    <phase duration="100"  state="gggrrryyygggrrrrrrgggrrrGGGgggrrrrrr" />

    <phase duration="100"  state="gggrrrrrrgggrrryyygggrrrrrrgggrrryyy" />
    <phase duration="100"  state="gggrrrrrrgggrrrGGGgggrrrrrrgggrrryyy" />
    <phase duration="100"  state="gggrrrrrrgggrrryyygggrrrrrrgggrrrGGG" />

    <phase duration="100"  state="gggGGGyyygggrrrrrrgggrrrrrrgggrrrrrr" />
    <phase duration="100"  state="gggyyyGGGgggrrrrrrgggrrrrrrgggrrrrrr" />
    <phase duration="100"  state="gggyyyyyygggrrrrrrgggrrrrrrgggrrrrrr" />

    <phase duration="100"  state="gggrrrrrrgggyyyyyygggrrrrrrgggrrrrrr" />
    <phase duration="100"  state="gggrrrrrrgggGGGyyygggrrrrrrgggrrrrrr" />
    <phase duration="100"  state="gggrrrrrrgggyyyGGGgggrrrrrrgggrrrrrr" />

    <phase duration="100"  state="gggrrrrrrgggrrrrrrgggGGGyyygggrrrrrr" />
    <phase duration="100"  state="gggrrrrrrgggrrrrrrgggyyyyyygggrrrrrr" />
    <phase duration="100"  state="gggrrrrrrgggrrrrrrgggyyyGGGgggrrrrrr" />

    <phase duration="100"  state="gggrrrrrrgggrrrrrrgggrrrrrrgggyyyyyy" />
    <phase duration="100"  state="gggrrrrrrgggrrrrrrgggrrrrrrgggGGGyyy" />
    <phase duration="100"  state="gggrrrrrrgggrrrrrrgggrrrrrrgggyyyGGG" />

  </tlLogic>

    <tlLogic id="1286462788" programID="Metro" offset="0" type="static">
      <phase duration="100"  state="gggGGGrrrgggrrrrrrgggGGGrrrgggrrrrrr"/>
    <phase duration="100"  state="gggrrrrrrgggGGGrrrgggrrrrrrgggGGGrrr"/>
    <phase duration="100"  state="gggrrrGGGgggrrrrrrgggrrrGGGgggrrrrrr"/>
    <phase duration="100"  state="gggrrrrrrgggrrrGGGgggrrrrrrgggrrrGGG"/>
    <phase duration="100"  state="gggGGGGGGgggrrrrrrgggrrrrrrgggrrrrrr"/>
    <phase duration="100"  state="gggrrrrrrgggGGGGGGgggrrrrrrgggrrrrrr"/>
    <phase duration="100"  state="gggrrrrrrgggrrrrrrgggGGGGGGgggrrrrrr"/>
    <phase duration="100"  state="gggrrrrrrgggrrrrrrgggrrrrrrgggGGGGGG"/>

    <phase duration="100"  state="gggyyyrrrgggrrrrrrgggyyyrrrgggrrrrrr"/>
    <phase duration="100"  state="gggGGGrrrgggrrrrrrgggyyyrrrgggrrrrrr"/>
    <phase duration="100"  state="gggyyyrrrgggrrrrrrgggGGGrrrgggrrrrrr"/>

    <phase duration="100"  state="gggrrrrrrgggyyyrrrgggrrrrrrgggyyyrrr" />
    <phase duration="100"  state="gggrrrrrrgggGGGrrrgggrrrrrrgggyyyrrr" />
    <phase duration="100"  state="gggrrrrrrgggyyyrrrgggrrrrrrgggGGGrrr" />

    <phase duration="100"  state="gggrrryyygggrrrrrrgggrrryyygggrrrrrr" />
    <phase duration="100"  state="gggrrrGGGgggrrrrrrgggrrryyygggrrrrrr" />
    <phase duration="100"  state="gggrrryyygggrrrrrrgggrrrGGGgggrrrrrr" />

    <phase duration="100"  state="gggrrrrrrgggrrryyygggrrrrrrgggrrryyy" />
    <phase duration="100"  state="gggrrrrrrgggrrrGGGgggrrrrrrgggrrryyy" />
    <phase duration="100"  state="gggrrrrrrgggrrryyygggrrrrrrgggrrrGGG" />

    <phase duration="100"  state="gggGGGyyygggrrrrrrgggrrrrrrgggrrrrrr" />
    <phase duration="100"  state="gggyyyGGGgggrrrrrrgggrrrrrrgggrrrrrr" />
    <phase duration="100"  state="gggyyyyyygggrrrrrrgggrrrrrrgggrrrrrr" />

    <phase duration="100"  state="gggrrrrrrgggyyyyyygggrrrrrrgggrrrrrr" />
    <phase duration="100"  state="gggrrrrrrgggGGGyyygggrrrrrrgggrrrrrr" />
    <phase duration="100"  state="gggrrrrrrgggyyyGGGgggrrrrrrgggrrrrrr" />

    <phase duration="100"  state="gggrrrrrrgggrrrrrrgggGGGyyygggrrrrrr" />
    <phase duration="100"  state="gggrrrrrrgggrrrrrrgggyyyyyygggrrrrrr" />
    <phase duration="100"  state="gggrrrrrrgggrrrrrrgggyyyGGGgggrrrrrr" />

    <phase duration="100"  state="gggrrrrrrgggrrrrrrgggrrrrrrgggyyyyyy" />
    <phase duration="100"  state="gggrrrrrrgggrrrrrrgggrrrrrrgggGGGyyy" />
    <phase duration="100"  state="gggrrrrrrgggrrrrrrgggrrrrrrgggyyyGGG" />
  </tlLogic>

    <tlLogic id="2395874691" programID="Metro" offset="0" type="static">
       <phase duration="100"  state="gggGGGrrrgggrrrrrrgggGGGrrrgggrrrrrr"/>
    <phase duration="100"  state="gggrrrrrrgggGGGrrrgggrrrrrrgggGGGrrr"/>
    <phase duration="100"  state="gggrrrGGGgggrrrrrrgggrrrGGGgggrrrrrr"/>
    <phase duration="100"  state="gggrrrrrrgggrrrGGGgggrrrrrrgggrrrGGG"/>
    <phase duration="100"  state="gggGGGGGGgggrrrrrrgggrrrrrrgggrrrrrr"/>
    <phase duration="100"  state="gggrrrrrrgggGGGGGGgggrrrrrrgggrrrrrr"/>
    <phase duration="100"  state="gggrrrrrrgggrrrrrrgggGGGGGGgggrrrrrr"/>
    <phase duration="100"  state="gggrrrrrrgggrrrrrrgggrrrrrrgggGGGGGG"/>

    <phase duration="100"  state="gggyyyrrrgggrrrrrrgggyyyrrrgggrrrrrr"/>
    <phase duration="100"  state="gggGGGrrrgggrrrrrrgggyyyrrrgggrrrrrr"/>
    <phase duration="100"  state="gggyyyrrrgggrrrrrrgggGGGrrrgggrrrrrr"/>

    <phase duration="100"  state="gggrrrrrrgggyyyrrrgggrrrrrrgggyyyrrr" />
    <phase duration="100"  state="gggrrrrrrgggGGGrrrgggrrrrrrgggyyyrrr" />
    <phase duration="100"  state="gggrrrrrrgggyyyrrrgggrrrrrrgggGGGrrr" />

    <phase duration="100"  state="gggrrryyygggrrrrrrgggrrryyygggrrrrrr" />
    <phase duration="100"  state="gggrrrGGGgggrrrrrrgggrrryyygggrrrrrr" />
    <phase duration="100"  state="gggrrryyygggrrrrrrgggrrrGGGgggrrrrrr" />

    <phase duration="100"  state="gggrrrrrrgggrrryyygggrrrrrrgggrrryyy" />
    <phase duration="100"  state="gggrrrrrrgggrrrGGGgggrrrrrrgggrrryyy" />
    <phase duration="100"  state="gggrrrrrrgggrrryyygggrrrrrrgggrrrGGG" />

    <phase duration="100"  state="gggGGGyyygggrrrrrrgggrrrrrrgggrrrrrr" />
    <phase duration="100"  state="gggyyyGGGgggrrrrrrgggrrrrrrgggrrrrrr" />
    <phase duration="100"  state="gggyyyyyygggrrrrrrgggrrrrrrgggrrrrrr" />

    <phase duration="100"  state="gggrrrrrrgggyyyyyygggrrrrrrgggrrrrrr" />
    <phase duration="100"  state="gggrrrrrrgggGGGyyygggrrrrrrgggrrrrrr" />
    <phase duration="100"  state="gggrrrrrrgggyyyGGGgggrrrrrrgggrrrrrr" />

    <phase duration="100"  state="gggrrrrrrgggrrrrrrgggGGGyyygggrrrrrr" />
    <phase duration="100"  state="gggrrrrrrgggrrrrrrgggyyyyyygggrrrrrr" />
    <phase duration="100"  state="gggrrrrrrgggrrrrrrgggyyyGGGgggrrrrrr" />

    <phase duration="100"  state="gggrrrrrrgggrrrrrrgggrrrrrrgggyyyyyy" />
    <phase duration="100"  state="gggrrrrrrgggrrrrrrgggrrrrrrgggGGGyyy" />
    <phase duration="100"  state="gggrrrrrrgggrrrrrrgggrrrrrrgggyyyGGG" />
  </tlLogic>

    <tlLogic id="2395875406" programID="Metro" offset="0" type="static">
        <phase duration="100"  state="gggGGGrrrgggrrrrrrgggGGGrrrgggrrrrrr"/>
    <phase duration="100"  state="gggrrrrrrgggGGGrrrgggrrrrrrgggGGGrrr"/>
    <phase duration="100"  state="gggrrrGGGgggrrrrrrgggrrrGGGgggrrrrrr"/>
    <phase duration="100"  state="gggrrrrrrgggrrrGGGgggrrrrrrgggrrrGGG"/>
    <phase duration="100"  state="gggGGGGGGgggrrrrrrgggrrrrrrgggrrrrrr"/>
    <phase duration="100"  state="gggrrrrrrgggGGGGGGgggrrrrrrgggrrrrrr"/>
    <phase duration="100"  state="gggrrrrrrgggrrrrrrgggGGGGGGgggrrrrrr"/>
    <phase duration="100"  state="gggrrrrrrgggrrrrrrgggrrrrrrgggGGGGGG"/>

    <phase duration="100"  state="gggyyyrrrgggrrrrrrgggyyyrrrgggrrrrrr"/>
    <phase duration="100"  state="gggGGGrrrgggrrrrrrgggyyyrrrgggrrrrrr"/>
    <phase duration="100"  state="gggyyyrrrgggrrrrrrgggGGGrrrgggrrrrrr"/>

    <phase duration="100"  state="gggrrrrrrgggyyyrrrgggrrrrrrgggyyyrrr" />
    <phase duration="100"  state="gggrrrrrrgggGGGrrrgggrrrrrrgggyyyrrr" />
    <phase duration="100"  state="gggrrrrrrgggyyyrrrgggrrrrrrgggGGGrrr" />

    <phase duration="100"  state="gggrrryyygggrrrrrrgggrrryyygggrrrrrr" />
    <phase duration="100"  state="gggrrrGGGgggrrrrrrgggrrryyygggrrrrrr" />
    <phase duration="100"  state="gggrrryyygggrrrrrrgggrrrGGGgggrrrrrr" />

    <phase duration="100"  state="gggrrrrrrgggrrryyygggrrrrrrgggrrryyy" />
    <phase duration="100"  state="gggrrrrrrgggrrrGGGgggrrrrrrgggrrryyy" />
    <phase duration="100"  state="gggrrrrrrgggrrryyygggrrrrrrgggrrrGGG" />

    <phase duration="100"  state="gggGGGyyygggrrrrrrgggrrrrrrgggrrrrrr" />
    <phase duration="100"  state="gggyyyGGGgggrrrrrrgggrrrrrrgggrrrrrr" />
    <phase duration="100"  state="gggyyyyyygggrrrrrrgggrrrrrrgggrrrrrr" />

    <phase duration="100"  state="gggrrrrrrgggyyyyyygggrrrrrrgggrrrrrr" />
    <phase duration="100"  state="gggrrrrrrgggGGGyyygggrrrrrrgggrrrrrr" />
    <phase duration="100"  state="gggrrrrrrgggyyyGGGgggrrrrrrgggrrrrrr" />

    <phase duration="100"  state="gggrrrrrrgggrrrrrrgggGGGyyygggrrrrrr" />
    <phase duration="100"  state="gggrrrrrrgggrrrrrrgggyyyyyygggrrrrrr" />
    <phase duration="100"  state="gggrrrrrrgggrrrrrrgggyyyGGGgggrrrrrr" />

    <phase duration="100"  state="gggrrrrrrgggrrrrrrgggrrrrrrgggyyyyyy" />
    <phase duration="100"  state="gggrrrrrrgggrrrrrrgggrrrrrrgggGGGyyy" />
    <phase duration="100"  state="gggrrrrrrgggrrrrrrgggrrrrrrgggyyyGGG" />
  </tlLogic>

    <tlLogic id="cluster_1286462556_9363692538" programID="Metro" offset="0" type="static">
       <phase duration="100"  state="gggGGGrrrgggrrrrrrgggGGGrrrgggrrrrrr"/>
    <phase duration="100"  state="gggrrrrrrgggGGGrrrgggrrrrrrgggGGGrrr"/>
    <phase duration="100"  state="gggrrrGGGgggrrrrrrgggrrrGGGgggrrrrrr"/>
    <phase duration="100"  state="gggrrrrrrgggrrrGGGgggrrrrrrgggrrrGGG"/>
    <phase duration="100"  state="gggGGGGGGgggrrrrrrgggrrrrrrgggrrrrrr"/>
    <phase duration="100"  state="gggrrrrrrgggGGGGGGgggrrrrrrgggrrrrrr"/>
    <phase duration="100"  state="gggrrrrrrgggrrrrrrgggGGGGGGgggrrrrrr"/>
    <phase duration="100"  state="gggrrrrrrgggrrrrrrgggrrrrrrgggGGGGGG"/>

    <phase duration="100"  state="gggyyyrrrgggrrrrrrgggyyyrrrgggrrrrrr"/>
    <phase duration="100"  state="gggGGGrrrgggrrrrrrgggyyyrrrgggrrrrrr"/>
    <phase duration="100"  state="gggyyyrrrgggrrrrrrgggGGGrrrgggrrrrrr"/>

    <phase duration="100"  state="gggrrrrrrgggyyyrrrgggrrrrrrgggyyyrrr" />
    <phase duration="100"  state="gggrrrrrrgggGGGrrrgggrrrrrrgggyyyrrr" />
    <phase duration="100"  state="gggrrrrrrgggyyyrrrgggrrrrrrgggGGGrrr" />

    <phase duration="100"  state="gggrrryyygggrrrrrrgggrrryyygggrrrrrr" />
    <phase duration="100"  state="gggrrrGGGgggrrrrrrgggrrryyygggrrrrrr" />
    <phase duration="100"  state="gggrrryyygggrrrrrrgggrrrGGGgggrrrrrr" />

    <phase duration="100"  state="gggrrrrrrgggrrryyygggrrrrrrgggrrryyy" />
    <phase duration="100"  state="gggrrrrrrgggrrrGGGgggrrrrrrgggrrryyy" />
    <phase duration="100"  state="gggrrrrrrgggrrryyygggrrrrrrgggrrrGGG" />

    <phase duration="100"  state="gggGGGyyygggrrrrrrgggrrrrrrgggrrrrrr" />
    <phase duration="100"  state="gggyyyGGGgggrrrrrrgggrrrrrrgggrrrrrr" />
    <phase duration="100"  state="gggyyyyyygggrrrrrrgggrrrrrrgggrrrrrr" />

    <phase duration="100"  state="gggrrrrrrgggyyyyyygggrrrrrrgggrrrrrr" />
    <phase duration="100"  state="gggrrrrrrgggGGGyyygggrrrrrrgggrrrrrr" />
    <phase duration="100"  state="gggrrrrrrgggyyyGGGgggrrrrrrgggrrrrrr" />

    <phase duration="100"  state="gggrrrrrrgggrrrrrrgggGGGyyygggrrrrrr" />
    <phase duration="100"  state="gggrrrrrrgggrrrrrrgggyyyyyygggrrrrrr" />
    <phase duration="100"  state="gggrrrrrrgggrrrrrrgggyyyGGGgggrrrrrr" />

    <phase duration="100"  state="gggrrrrrrgggrrrrrrgggrrrrrrgggyyyyyy" />
    <phase duration="100"  state="gggrrrrrrgggrrrrrrgggrrrrrrgggGGGyyy" />
    <phase duration="100"  state="gggrrrrrrgggrrrrrrgggrrrrrrgggyyyGGG" />
  </tlLogic>

    <tlLogic id="cluster_1286462699_4145409503" programID="Metro" offset="0" type="static">
       <phase duration="100"  state="gggGGGrrrgggrrrrrrgggGGGrrrgggrrrrrr"/>
    <phase duration="100"  state="gggrrrrrrgggGGGrrrgggrrrrrrgggGGGrrr"/>
    <phase duration="100"  state="gggrrrGGGgggrrrrrrgggrrrGGGgggrrrrrr"/>
    <phase duration="100"  state="gggrrrrrrgggrrrGGGgggrrrrrrgggrrrGGG"/>
    <phase duration="100"  state="gggGGGGGGgggrrrrrrgggrrrrrrgggrrrrrr"/>
    <phase duration="100"  state="gggrrrrrrgggGGGGGGgggrrrrrrgggrrrrrr"/>
    <phase duration="100"  state="gggrrrrrrgggrrrrrrgggGGGGGGgggrrrrrr"/>
    <phase duration="100"  state="gggrrrrrrgggrrrrrrgggrrrrrrgggGGGGGG"/>

    <phase duration="100"  state="gggyyyrrrgggrrrrrrgggyyyrrrgggrrrrrr"/>
    <phase duration="100"  state="gggGGGrrrgggrrrrrrgggyyyrrrgggrrrrrr"/>
    <phase duration="100"  state="gggyyyrrrgggrrrrrrgggGGGrrrgggrrrrrr"/>

    <phase duration="100"  state="gggrrrrrrgggyyyrrrgggrrrrrrgggyyyrrr" />
    <phase duration="100"  state="gggrrrrrrgggGGGrrrgggrrrrrrgggyyyrrr" />
    <phase duration="100"  state="gggrrrrrrgggyyyrrrgggrrrrrrgggGGGrrr" />

    <phase duration="100"  state="gggrrryyygggrrrrrrgggrrryyygggrrrrrr" />
    <phase duration="100"  state="gggrrrGGGgggrrrrrrgggrrryyygggrrrrrr" />
    <phase duration="100"  state="gggrrryyygggrrrrrrgggrrrGGGgggrrrrrr" />

    <phase duration="100"  state="gggrrrrrrgggrrryyygggrrrrrrgggrrryyy" />
    <phase duration="100"  state="gggrrrrrrgggrrrGGGgggrrrrrrgggrrryyy" />
    <phase duration="100"  state="gggrrrrrrgggrrryyygggrrrrrrgggrrrGGG" />

    <phase duration="100"  state="gggGGGyyygggrrrrrrgggrrrrrrgggrrrrrr" />
    <phase duration="100"  state="gggyyyGGGgggrrrrrrgggrrrrrrgggrrrrrr" />
    <phase duration="100"  state="gggyyyyyygggrrrrrrgggrrrrrrgggrrrrrr" />

    <phase duration="100"  state="gggrrrrrrgggyyyyyygggrrrrrrgggrrrrrr" />
    <phase duration="100"  state="gggrrrrrrgggGGGyyygggrrrrrrgggrrrrrr" />
    <phase duration="100"  state="gggrrrrrrgggyyyGGGgggrrrrrrgggrrrrrr" />

    <phase duration="100"  state="gggrrrrrrgggrrrrrrgggGGGyyygggrrrrrr" />
    <phase duration="100"  state="gggrrrrrrgggrrrrrrgggyyyyyygggrrrrrr" />
    <phase duration="100"  state="gggrrrrrrgggrrrrrrgggyyyGGGgggrrrrrr" />

    <phase duration="100"  state="gggrrrrrrgggrrrrrrgggrrrrrrgggyyyyyy" />
    <phase duration="100"  state="gggrrrrrrgggrrrrrrgggrrrrrrgggGGGyyy" />
    <phase duration="100"  state="gggrrrrrrgggrrrrrrgggrrrrrrgggyyyGGG" />
  </tlLogic>


  <tlLogic id="cluster_1286462908_1286462986_2890680720_2890680721" programID="Metro" offset="0" type="static">
        <phase duration="100"  state="gggGGGrrrgggrrrrrrgggGGGrrrgggrrrrrr"/>
    <phase duration="100"  state="gggrrrrrrgggGGGrrrgggrrrrrrgggGGGrrr"/>
    <phase duration="100"  state="gggrrrGGGgggrrrrrrgggrrrGGGgggrrrrrr"/>
    <phase duration="100"  state="gggrrrrrrgggrrrGGGgggrrrrrrgggrrrGGG"/>
    <phase duration="100"  state="gggGGGGGGgggrrrrrrgggrrrrrrgggrrrrrr"/>
    <phase duration="100"  state="gggrrrrrrgggGGGGGGgggrrrrrrgggrrrrrr"/>
    <phase duration="100"  state="gggrrrrrrgggrrrrrrgggGGGGGGgggrrrrrr"/>
    <phase duration="100"  state="gggrrrrrrgggrrrrrrgggrrrrrrgggGGGGGG"/>

    <phase duration="100"  state="gggyyyrrrgggrrrrrrgggyyyrrrgggrrrrrr"/>
    <phase duration="100"  state="gggGGGrrrgggrrrrrrgggyyyrrrgggrrrrrr"/>
    <phase duration="100"  state="gggyyyrrrgggrrrrrrgggGGGrrrgggrrrrrr"/>

    <phase duration="100"  state="gggrrrrrrgggyyyrrrgggrrrrrrgggyyyrrr" />
    <phase duration="100"  state="gggrrrrrrgggGGGrrrgggrrrrrrgggyyyrrr" />
    <phase duration="100"  state="gggrrrrrrgggyyyrrrgggrrrrrrgggGGGrrr" />

    <phase duration="100"  state="gggrrryyygggrrrrrrgggrrryyygggrrrrrr" />
    <phase duration="100"  state="gggrrrGGGgggrrrrrrgggrrryyygggrrrrrr" />
    <phase duration="100"  state="gggrrryyygggrrrrrrgggrrrGGGgggrrrrrr" />

    <phase duration="100"  state="gggrrrrrrgggrrryyygggrrrrrrgggrrryyy" />
    <phase duration="100"  state="gggrrrrrrgggrrrGGGgggrrrrrrgggrrryyy" />
    <phase duration="100"  state="gggrrrrrrgggrrryyygggrrrrrrgggrrrGGG" />

    <phase duration="100"  state="gggGGGyyygggrrrrrrgggrrrrrrgggrrrrrr" />
    <phase duration="100"  state="gggyyyGGGgggrrrrrrgggrrrrrrgggrrrrrr" />
    <phase duration="100"  state="gggyyyyyygggrrrrrrgggrrrrrrgggrrrrrr" />

    <phase duration="100"  state="gggrrrrrrgggyyyyyygggrrrrrrgggrrrrrr" />
    <phase duration="100"  state="gggrrrrrrgggGGGyyygggrrrrrrgggrrrrrr" />
    <phase duration="100"  state="gggrrrrrrgggyyyGGGgggrrrrrrgggrrrrrr" />

    <phase duration="100"  state="gggrrrrrrgggrrrrrrgggGGGyyygggrrrrrr" />
    <phase duration="100"  state="gggrrrrrrgggrrrrrrgggyyyyyygggrrrrrr" />
    <phase duration="100"  state="gggrrrrrrgggrrrrrrgggyyyGGGgggrrrrrr" />

    <phase duration="100"  state="gggrrrrrrgggrrrrrrgggrrrrrrgggyyyyyy" />
    <phase duration="100"  state="gggrrrrrrgggrrrrrrgggrrrrrrgggGGGyyy" />
    <phase duration="100"  state="gggrrrrrrgggrrrrrrgggrrrrrrgggyyyGGG" />
  </tlLogic>
    <tlLogic id="cluster_1286463174_9363692576" programID="Metro" offset="0" type="static">

    <phase duration="100"  state="gggGGGrrrgggrrrrrrgggGGGrrrgggrrrrrr"/>
    <phase duration="100"  state="gggrrrrrrgggGGGrrrgggrrrrrrgggGGGrrr"/>
    <phase duration="100"  state="gggrrrGGGgggrrrrrrgggrrrGGGgggrrrrrr"/>
    <phase duration="100"  state="gggrrrrrrgggrrrGGGgggrrrrrrgggrrrGGG"/>
    <phase duration="100"  state="gggGGGGGGgggrrrrrrgggrrrrrrgggrrrrrr"/>
    <phase duration="100"  state="gggrrrrrrgggGGGGGGgggrrrrrrgggrrrrrr"/>
    <phase duration="100"  state="gggrrrrrrgggrrrrrrgggGGGGGGgggrrrrrr"/>
    <phase duration="100"  state="gggrrrrrrgggrrrrrrgggrrrrrrgggGGGGGG"/>

    <phase duration="100"  state="gggyyyrrrgggrrrrrrgggyyyrrrgggrrrrrr"/>
    <phase duration="100"  state="gggGGGrrrgggrrrrrrgggyyyrrrgggrrrrrr"/>
    <phase duration="100"  state="gggyyyrrrgggrrrrrrgggGGGrrrgggrrrrrr"/>

    <phase duration="100"  state="gggrrrrrrgggyyyrrrgggrrrrrrgggyyyrrr" />
    <phase duration="100"  state="gggrrrrrrgggGGGrrrgggrrrrrrgggyyyrrr" />
    <phase duration="100"  state="gggrrrrrrgggyyyrrrgggrrrrrrgggGGGrrr" />

    <phase duration="100"  state="gggrrryyygggrrrrrrgggrrryyygggrrrrrr" />
    <phase duration="100"  state="gggrrrGGGgggrrrrrrgggrrryyygggrrrrrr" />
    <phase duration="100"  state="gggrrryyygggrrrrrrgggrrrGGGgggrrrrrr" />

    <phase duration="100"  state="gggrrrrrrgggrrryyygggrrrrrrgggrrryyy" />
    <phase duration="100"  state="gggrrrrrrgggrrrGGGgggrrrrrrgggrrryyy" />
    <phase duration="100"  state="gggrrrrrrgggrrryyygggrrrrrrgggrrrGGG" />

    <phase duration="100"  state="gggGGGyyygggrrrrrrgggrrrrrrgggrrrrrr" />
    <phase duration="100"  state="gggyyyGGGgggrrrrrrgggrrrrrrgggrrrrrr" />
    <phase duration="100"  state="gggyyyyyygggrrrrrrgggrrrrrrgggrrrrrr" />

    <phase duration="100"  state="gggrrrrrrgggyyyyyygggrrrrrrgggrrrrrr" />
    <phase duration="100"  state="gggrrrrrrgggGGGyyygggrrrrrrgggrrrrrr" />
    <phase duration="100"  state="gggrrrrrrgggyyyGGGgggrrrrrrgggrrrrrr" />

    <phase duration="100"  state="gggrrrrrrgggrrrrrrgggGGGyyygggrrrrrr" />
    <phase duration="100"  state="gggrrrrrrgggrrrrrrgggyyyyyygggrrrrrr" />
    <phase duration="100"  state="gggrrrrrrgggrrrrrrgggyyyGGGgggrrrrrr" />

    <phase duration="100"  state="gggrrrrrrgggrrrrrrgggrrrrrrgggyyyyyy" />
    <phase duration="100"  state="gggrrrrrrgggrrrrrrgggrrrrrrgggGGGyyy" />
    <phase duration="100"  state="gggrrrrrrgggrrrrrrgggrrrrrrgggyyyGGG" />

  </tlLogic>

    <tlLogic id="cluster_1668249882_4145409492_4145409511_9363692535" programID="Metro" offset="0" type="static">
      <phase duration="100"  state="gggGGGrrrgggrrrrrrgggGGGrrrgggrrrrrr"/>
    <phase duration="100"  state="gggrrrrrrgggGGGrrrgggrrrrrrgggGGGrrr"/>
    <phase duration="100"  state="gggrrrGGGgggrrrrrrgggrrrGGGgggrrrrrr"/>
    <phase duration="100"  state="gggrrrrrrgggrrrGGGgggrrrrrrgggrrrGGG"/>
    <phase duration="100"  state="gggGGGGGGgggrrrrrrgggrrrrrrgggrrrrrr"/>
    <phase duration="100"  state="gggrrrrrrgggGGGGGGgggrrrrrrgggrrrrrr"/>
    <phase duration="100"  state="gggrrrrrrgggrrrrrrgggGGGGGGgggrrrrrr"/>
    <phase duration="100"  state="gggrrrrrrgggrrrrrrgggrrrrrrgggGGGGGG"/>

    <phase duration="100"  state="gggyyyrrrgggrrrrrrgggyyyrrrgggrrrrrr"/>
    <phase duration="100"  state="gggGGGrrrgggrrrrrrgggyyyrrrgggrrrrrr"/>
    <phase duration="100"  state="gggyyyrrrgggrrrrrrgggGGGrrrgggrrrrrr"/>

    <phase duration="100"  state="gggrrrrrrgggyyyrrrgggrrrrrrgggyyyrrr" />
    <phase duration="100"  state="gggrrrrrrgggGGGrrrgggrrrrrrgggyyyrrr" />
    <phase duration="100"  state="gggrrrrrrgggyyyrrrgggrrrrrrgggGGGrrr" />

    <phase duration="100"  state="gggrrryyygggrrrrrrgggrrryyygggrrrrrr" />
    <phase duration="100"  state="gggrrrGGGgggrrrrrrgggrrryyygggrrrrrr" />
    <phase duration="100"  state="gggrrryyygggrrrrrrgggrrrGGGgggrrrrrr" />

    <phase duration="100"  state="gggrrrrrrgggrrryyygggrrrrrrgggrrryyy" />
    <phase duration="100"  state="gggrrrrrrgggrrrGGGgggrrrrrrgggrrryyy" />
    <phase duration="100"  state="gggrrrrrrgggrrryyygggrrrrrrgggrrrGGG" />

    <phase duration="100"  state="gggGGGyyygggrrrrrrgggrrrrrrgggrrrrrr" />
    <phase duration="100"  state="gggyyyGGGgggrrrrrrgggrrrrrrgggrrrrrr" />
    <phase duration="100"  state="gggyyyyyygggrrrrrrgggrrrrrrgggrrrrrr" />

    <phase duration="100"  state="gggrrrrrrgggyyyyyygggrrrrrrgggrrrrrr" />
    <phase duration="100"  state="gggrrrrrrgggGGGyyygggrrrrrrgggrrrrrr" />
    <phase duration="100"  state="gggrrrrrrgggyyyGGGgggrrrrrrgggrrrrrr" />

    <phase duration="100"  state="gggrrrrrrgggrrrrrrgggGGGyyygggrrrrrr" />
    <phase duration="100"  state="gggrrrrrrgggrrrrrrgggyyyyyygggrrrrrr" />
    <phase duration="100"  state="gggrrrrrrgggrrrrrrgggyyyGGGgggrrrrrr" />

    <phase duration="100"  state="gggrrrrrrgggrrrrrrgggrrrrrrgggyyyyyy" />
    <phase duration="100"  state="gggrrrrrrgggrrrrrrgggrrrrrrgggGGGyyy" />
    <phase duration="100"  state="gggrrrrrrgggrrrrrrgggrrrrrrgggyyyGGG" />
  </tlLogic>

    <tlLogic id="cluster_2395874686_5167373374" programID="Metro" offset="0" type="static">
       <phase duration="100"  state="gggGGGrrrgggrrrrrrgggGGGrrrgggrrrrrr"/>
    <phase duration="100"  state="gggrrrrrrgggGGGrrrgggrrrrrrgggGGGrrr"/>
    <phase duration="100"  state="gggrrrGGGgggrrrrrrgggrrrGGGgggrrrrrr"/>
    <phase duration="100"  state="gggrrrrrrgggrrrGGGgggrrrrrrgggrrrGGG"/>
    <phase duration="100"  state="gggGGGGGGgggrrrrrrgggrrrrrrgggrrrrrr"/>
    <phase duration="100"  state="gggrrrrrrgggGGGGGGgggrrrrrrgggrrrrrr"/>
    <phase duration="100"  state="gggrrrrrrgggrrrrrrgggGGGGGGgggrrrrrr"/>
    <phase duration="100"  state="gggrrrrrrgggrrrrrrgggrrrrrrgggGGGGGG"/>

    <phase duration="100"  state="gggyyyrrrgggrrrrrrgggyyyrrrgggrrrrrr"/>
    <phase duration="100"  state="gggGGGrrrgggrrrrrrgggyyyrrrgggrrrrrr"/>
    <phase duration="100"  state="gggyyyrrrgggrrrrrrgggGGGrrrgggrrrrrr"/>

    <phase duration="100"  state="gggrrrrrrgggyyyrrrgggrrrrrrgggyyyrrr" />
    <phase duration="100"  state="gggrrrrrrgggGGGrrrgggrrrrrrgggyyyrrr" />
    <phase duration="100"  state="gggrrrrrrgggyyyrrrgggrrrrrrgggGGGrrr" />

    <phase duration="100"  state="gggrrryyygggrrrrrrgggrrryyygggrrrrrr" />
    <phase duration="100"  state="gggrrrGGGgggrrrrrrgggrrryyygggrrrrrr" />
    <phase duration="100"  state="gggrrryyygggrrrrrrgggrrrGGGgggrrrrrr" />

    <phase duration="100"  state="gggrrrrrrgggrrryyygggrrrrrrgggrrryyy" />
    <phase duration="100"  state="gggrrrrrrgggrrrGGGgggrrrrrrgggrrryyy" />
    <phase duration="100"  state="gggrrrrrrgggrrryyygggrrrrrrgggrrrGGG" />

    <phase duration="100"  state="gggGGGyyygggrrrrrrgggrrrrrrgggrrrrrr" />
    <phase duration="100"  state="gggyyyGGGgggrrrrrrgggrrrrrrgggrrrrrr" />
    <phase duration="100"  state="gggyyyyyygggrrrrrrgggrrrrrrgggrrrrrr" />

    <phase duration="100"  state="gggrrrrrrgggyyyyyygggrrrrrrgggrrrrrr" />
    <phase duration="100"  state="gggrrrrrrgggGGGyyygggrrrrrrgggrrrrrr" />
    <phase duration="100"  state="gggrrrrrrgggyyyGGGgggrrrrrrgggrrrrrr" />

    <phase duration="100"  state="gggrrrrrrgggrrrrrrgggGGGyyygggrrrrrr" />
    <phase duration="100"  state="gggrrrrrrgggrrrrrrgggyyyyyygggrrrrrr" />
    <phase duration="100"  state="gggrrrrrrgggrrrrrrgggyyyGGGgggrrrrrr" />

    <phase duration="100"  state="gggrrrrrrgggrrrrrrgggrrrrrrgggyyyyyy" />
    <phase duration="100"  state="gggrrrrrrgggrrrrrrgggrrrrrrgggGGGyyy" />
    <phase duration="100"  state="gggrrrrrrgggrrrrrrgggrrrrrrgggyyyGGG" />
  </tlLogic>

    <tlLogic id="cluster_2395874693_4145409505_5167373370_5167373371" programID="Metro" offset="0" type="static">
        <phase duration="100"  state="gggGGGrrrgggrrrrrrgggGGGrrrgggrrrrrr"/>
    <phase duration="100"  state="gggrrrrrrgggGGGrrrgggrrrrrrgggGGGrrr"/>
    <phase duration="100"  state="gggrrrGGGgggrrrrrrgggrrrGGGgggrrrrrr"/>
    <phase duration="100"  state="gggrrrrrrgggrrrGGGgggrrrrrrgggrrrGGG"/>
    <phase duration="100"  state="gggGGGGGGgggrrrrrrgggrrrrrrgggrrrrrr"/>
    <phase duration="100"  state="gggrrrrrrgggGGGGGGgggrrrrrrgggrrrrrr"/>
    <phase duration="100"  state="gggrrrrrrgggrrrrrrgggGGGGGGgggrrrrrr"/>
    <phase duration="100"  state="gggrrrrrrgggrrrrrrgggrrrrrrgggGGGGGG"/>

    <phase duration="100"  state="gggyyyrrrgggrrrrrrgggyyyrrrgggrrrrrr"/>
    <phase duration="100"  state="gggGGGrrrgggrrrrrrgggyyyrrrgggrrrrrr"/>
    <phase duration="100"  state="gggyyyrrrgggrrrrrrgggGGGrrrgggrrrrrr"/>

    <phase duration="100"  state="gggrrrrrrgggyyyrrrgggrrrrrrgggyyyrrr" />
    <phase duration="100"  state="gggrrrrrrgggGGGrrrgggrrrrrrgggyyyrrr" />
    <phase duration="100"  state="gggrrrrrrgggyyyrrrgggrrrrrrgggGGGrrr" />

    <phase duration="100"  state="gggrrryyygggrrrrrrgggrrryyygggrrrrrr" />
    <phase duration="100"  state="gggrrrGGGgggrrrrrrgggrrryyygggrrrrrr" />
    <phase duration="100"  state="gggrrryyygggrrrrrrgggrrrGGGgggrrrrrr" />

    <phase duration="100"  state="gggrrrrrrgggrrryyygggrrrrrrgggrrryyy" />
    <phase duration="100"  state="gggrrrrrrgggrrrGGGgggrrrrrrgggrrryyy" />
    <phase duration="100"  state="gggrrrrrrgggrrryyygggrrrrrrgggrrrGGG" />

    <phase duration="100"  state="gggGGGyyygggrrrrrrgggrrrrrrgggrrrrrr" />
    <phase duration="100"  state="gggyyyGGGgggrrrrrrgggrrrrrrgggrrrrrr" />
    <phase duration="100"  state="gggyyyyyygggrrrrrrgggrrrrrrgggrrrrrr" />

    <phase duration="100"  state="gggrrrrrrgggyyyyyygggrrrrrrgggrrrrrr" />
    <phase duration="100"  state="gggrrrrrrgggGGGyyygggrrrrrrgggrrrrrr" />
    <phase duration="100"  state="gggrrrrrrgggyyyGGGgggrrrrrrgggrrrrrr" />

    <phase duration="100"  state="gggrrrrrrgggrrrrrrgggGGGyyygggrrrrrr" />
    <phase duration="100"  state="gggrrrrrrgggrrrrrrgggyyyyyygggrrrrrr" />
    <phase duration="100"  state="gggrrrrrrgggrrrrrrgggyyyGGGgggrrrrrr" />

    <phase duration="100"  state="gggrrrrrrgggrrrrrrgggrrrrrrgggyyyyyy" />
    <phase duration="100"  state="gggrrrrrrgggrrrrrrgggrrrrrrgggGGGyyy" />
    <phase duration="100"  state="gggrrrrrrgggrrrrrrgggrrrrrrgggyyyGGG" />
  </tlLogic>

    <tlLogic id="cluster_2395874697_4145408973" programID="Metro" offset="0" type="static">
       <phase duration="100"  state="gggGGGrrrgggrrrrrrgggGGGrrrgggrrrrrr"/>
    <phase duration="100"  state="gggrrrrrrgggGGGrrrgggrrrrrrgggGGGrrr"/>
    <phase duration="100"  state="gggrrrGGGgggrrrrrrgggrrrGGGgggrrrrrr"/>
    <phase duration="100"  state="gggrrrrrrgggrrrGGGgggrrrrrrgggrrrGGG"/>
    <phase duration="100"  state="gggGGGGGGgggrrrrrrgggrrrrrrgggrrrrrr"/>
    <phase duration="100"  state="gggrrrrrrgggGGGGGGgggrrrrrrgggrrrrrr"/>
    <phase duration="100"  state="gggrrrrrrgggrrrrrrgggGGGGGGgggrrrrrr"/>
    <phase duration="100"  state="gggrrrrrrgggrrrrrrgggrrrrrrgggGGGGGG"/>

    <phase duration="100"  state="gggyyyrrrgggrrrrrrgggyyyrrrgggrrrrrr"/>
    <phase duration="100"  state="gggGGGrrrgggrrrrrrgggyyyrrrgggrrrrrr"/>
    <phase duration="100"  state="gggyyyrrrgggrrrrrrgggGGGrrrgggrrrrrr"/>

    <phase duration="100"  state="gggrrrrrrgggyyyrrrgggrrrrrrgggyyyrrr" />
    <phase duration="100"  state="gggrrrrrrgggGGGrrrgggrrrrrrgggyyyrrr" />
    <phase duration="100"  state="gggrrrrrrgggyyyrrrgggrrrrrrgggGGGrrr" />

    <phase duration="100"  state="gggrrryyygggrrrrrrgggrrryyygggrrrrrr" />
    <phase duration="100"  state="gggrrrGGGgggrrrrrrgggrrryyygggrrrrrr" />
    <phase duration="100"  state="gggrrryyygggrrrrrrgggrrrGGGgggrrrrrr" />

    <phase duration="100"  state="gggrrrrrrgggrrryyygggrrrrrrgggrrryyy" />
    <phase duration="100"  state="gggrrrrrrgggrrrGGGgggrrrrrrgggrrryyy" />
    <phase duration="100"  state="gggrrrrrrgggrrryyygggrrrrrrgggrrrGGG" />

    <phase duration="100"  state="gggGGGyyygggrrrrrrgggrrrrrrgggrrrrrr" />
    <phase duration="100"  state="gggyyyGGGgggrrrrrrgggrrrrrrgggrrrrrr" />
    <phase duration="100"  state="gggyyyyyygggrrrrrrgggrrrrrrgggrrrrrr" />

    <phase duration="100"  state="gggrrrrrrgggyyyyyygggrrrrrrgggrrrrrr" />
    <phase duration="100"  state="gggrrrrrrgggGGGyyygggrrrrrrgggrrrrrr" />
    <phase duration="100"  state="gggrrrrrrgggyyyGGGgggrrrrrrgggrrrrrr" />

    <phase duration="100"  state="gggrrrrrrgggrrrrrrgggGGGyyygggrrrrrr" />
    <phase duration="100"  state="gggrrrrrrgggrrrrrrgggyyyyyygggrrrrrr" />
    <phase duration="100"  state="gggrrrrrrgggrrrrrrgggyyyGGGgggrrrrrr" />

    <phase duration="100"  state="gggrrrrrrgggrrrrrrgggrrrrrrgggyyyyyy" />
    <phase duration="100"  state="gggrrrrrrgggrrrrrrgggrrrrrrgggGGGyyy" />