<?xml version="1.0" encoding="UTF-8"?>

<!-- generated on 2023-05-03 23:30:46 by Eclipse SUMO netedit Version 1.16.0
<configuration xmlns:xsi="http://www.w3.org/2001/XMLSchema-instance" xsi:noNamespaceSchemaLocation="http://sumo.dlr.de/xsd/netconvertConfiguration.xsd">

    <input>
        <sumo-net_file-file value_proj="C:\Users\Metro\Desktop\研究生\研二下\enc\roadnet.net_file.xml"/>
    </input>

    <output>
        <output-file value_proj="C:\Users\Metro\Desktop\研究生\研二下\enc\roadnet.net_file.xml"/>
    </output>

    <processing>
        <geometry.min-radius.fix.railways value_proj="false"/>
        <geometry.max-grade.fix value_proj="false"/>
        <offset.disable-normalization value_proj="true"/>
        <lefthand value_proj="0"/>
    </processing>

    <junctions>
        <no-turnarounds value_proj="true"/>
        <junctions.corner-detail value_proj="5"/>
        <junctions.limit-turn-speed value_proj="5.50"/>
        <rectangular-lane-cut value_proj="0"/>
    </junctions>

    <pedestrian>
        <walkingareas value_proj="0"/>
    </pedestrian>

</configuration>
-->

<net version="1.16" junctionCornerDetail="5" limitTurnSpeed="5.50" xmlns:xsi="http://www.w3.org/2001/XMLSchema-instance" xsi:noNamespaceSchemaLocation="http://sumo.dlr.de/xsd/net_file.xsd">

    <location netOffset="-226789.13,-3335748.74" convBoundary="6491.44,7545.25,10939.61,10272.80" origBoundary="120.160224,30.124562,120.356769,30.267024" projParameter="+proj=utm +zone=51 +ellps=WGS84 +datum=WGS84 +units=m +no_defs"/>

    <type id="highway.bridleway" priority="1" numLanes="1" speed="2.78" allow="pedestrian" oneway="1" width="2.00"/>
    <type id="highway.bus_guideway" priority="1" numLanes="1" speed="27.78" allow="bus" oneway="1"/>
    <type id="highway.cycleway" priority="1" numLanes="1" speed="5.56" allow="bicycle" oneway="0" width="1.00"/>
    <type id="highway.footway" priority="1" numLanes="1" speed="2.78" allow="pedestrian" oneway="1" width="2.00"/>
    <type id="highway.ford" priority="1" numLanes="1" speed="2.78" allow="army" oneway="0"/>
    <type id="highway.living_street" priority="2" numLanes="1" speed="2.78" disallow="tram rail_urban rail rail_electric rail_fast ship" oneway="0"/>
    <type id="highway.motorway" priority="14" numLanes="2" speed="39.44" allow="private emergency authority army vip passenger hov taxi bus coach delivery truck trailer motorcycle evehicle custom1 custom2" oneway="1"/>
    <type id="highway.motorway_link" priority="9" numLanes="1" speed="22.22" allow="private emergency authority army vip passenger hov taxi bus coach delivery truck trailer motorcycle evehicle custom1 custom2" oneway="1"/>
    <type id="highway.path" priority="1" numLanes="1" speed="5.56" allow="pedestrian bicycle" oneway="0" width="2.00"/>
    <type id="highway.pedestrian" priority="1" numLanes="1" speed="2.78" allow="pedestrian" oneway="1" width="2.00"/>
    <type id="highway.primary" priority="12" numLanes="2" speed="27.78" disallow="tram rail_urban rail rail_electric rail_fast ship" oneway="0"/>
    <type id="highway.primary_link" priority="7" numLanes="1" speed="22.22" disallow="tram rail_urban rail rail_electric rail_fast ship" oneway="0"/>
    <type id="highway.raceway" priority="15" numLanes="2" speed="83.33" allow="vip" oneway="0"/>
    <type id="highway.residential" priority="3" numLanes="1" speed="13.89" disallow="tram rail_urban rail rail_electric rail_fast ship" oneway="0"/>
    <type id="highway.secondary" priority="11" numLanes="1" speed="27.78" disallow="tram rail_urban rail rail_electric rail_fast ship" oneway="0"/>
    <type id="highway.secondary_link" priority="6" numLanes="1" speed="22.22" disallow="tram rail_urban rail rail_electric rail_fast ship" oneway="0"/>
    <type id="highway.service" priority="1" numLanes="1" speed="5.56" allow="pedestrian delivery bicycle" oneway="0"/>
    <type id="highway.stairs" priority="1" numLanes="1" speed="1.39" allow="pedestrian" oneway="1" width="2.00"/>
    <type id="highway.step" priority="1" numLanes="1" speed="1.39" allow="pedestrian" oneway="1" width="2.00"/>
    <type id="highway.steps" priority="1" numLanes="1" speed="1.39" allow="pedestrian" oneway="1" width="2.00"/>
    <type id="highway.tertiary" priority="10" numLanes="1" speed="22.22" disallow="tram rail_urban rail rail_electric rail_fast ship" oneway="0"/>
    <type id="highway.tertiary_link" priority="5" numLanes="1" speed="22.22" disallow="tram rail_urban rail rail_electric rail_fast ship" oneway="0"/>
    <type id="highway.track" priority="1" numLanes="1" speed="5.56" allow="pedestrian motorcycle moped bicycle" oneway="0"/>
    <type id="highway.trunk" priority="13" numLanes="2" speed="27.78" disallow="pedestrian bicycle tram rail_urban rail rail_electric rail_fast ship" oneway="0"/>
    <type id="highway.trunk_link" priority="8" numLanes="1" speed="22.22" disallow="pedestrian bicycle tram rail_urban rail rail_electric rail_fast ship" oneway="0"/>
    <type id="highway.unclassified" priority="4" numLanes="1" speed="13.89" disallow="tram rail_urban rail rail_electric rail_fast ship" oneway="0"/>
    <type id="highway.unsurfaced" priority="1" numLanes="1" speed="8.33" disallow="tram rail_urban rail rail_electric rail_fast ship" oneway="0"/>
    <type id="railway.highspeed" priority="21" numLanes="1" speed="69.44" allow="rail_fast" oneway="1"/>
    <type id="railway.light_rail" priority="19" numLanes="1" speed="27.78" allow="rail_urban" oneway="1"/>
    <type id="railway.preserved" priority="16" numLanes="1" speed="27.78" allow="rail" oneway="1"/>
    <type id="railway.rail" priority="20" numLanes="1" speed="44.44" allow="rail" oneway="1"/>
    <type id="railway.subway" priority="18" numLanes="1" speed="27.78" allow="rail_urban" oneway="1"/>
    <type id="railway.tram" priority="17" numLanes="1" speed="13.89" allow="tram" oneway="1"/>

    <edge id=":1286462346_0" function="internal">
        <lane id=":1286462346_0_0" index="0" disallow="tram rail_urban rail rail_electric rail_fast ship" speed="7.07" length="10.48" shape="9048.37,9173.96 9047.74,9171.19 9046.37,9169.25 9044.26,9168.13 9041.40,9167.83"/>
        <lane id=":1286462346_0_1" index="1" disallow="tram rail_urban rail rail_electric rail_fast ship" speed="7.83" length="13.08" shape="9048.37,9173.96 9047.63,9169.79 9046.21,9166.85 9044.09,9165.13 9041.28,9164.64"/>
        <lane id=":1286462346_0_2" index="2" disallow="tram rail_urban rail rail_electric rail_fast ship" speed="8.56" length="15.83" shape="9048.37,9173.96 9047.53,9168.40 9046.05,9164.45 9043.92,9162.13 9041.16,9161.44"/>
    </edge>
    <edge id=":1286462346_3" function="internal">
        <lane id=":1286462346_3_0" index="0" disallow="tram rail_urban rail rail_electric rail_fast ship" speed="22.22" length="28.28" shape="9051.56,9173.70 9050.38,9165.40 9048.81,9159.83 9047.22,9154.26 9045.98,9145.97"/>
        <lane id=":1286462346_3_1" index="1" disallow="tram rail_urban rail rail_electric rail_fast ship" speed="22.22" length="28.28" shape="9051.56,9173.70 9049.16,9145.68"/>
        <lane id=":1286462346_3_2" index="2" disallow="tram rail_urban rail rail_electric rail_fast ship" speed="22.22" length="28.28" shape="9051.56,9173.70 9051.37,9165.31 9052.00,9159.55 9052.60,9153.79 9052.35,9145.40"/>
    </edge>
    <edge id=":1286462346_6" function="internal">
        <lane id=":1286462346_6_0" index="0" disallow="tram rail_urban rail rail_electric rail_fast ship" speed="11.33" length="11.20" shape="9054.75,9173.44 9054.96,9163.76 9055.46,9162.33"/>
        <lane id=":1286462346_6_1" index="1" disallow="tram rail_urban rail rail_electric rail_fast ship" speed="10.82" length="8.64" shape="9054.75,9173.44 9055.07,9165.15 9055.20,9164.83"/>
        <lane id=":1286462346_6_2" index="2" disallow="tram rail_urban rail rail_electric rail_fast ship" speed="10.30" length="7.01" shape="9054.75,9173.44 9055.17,9166.55 9055.22,9166.46"/>
    </edge>
    <edge id=":1286462346_36" function="internal">
        <lane id=":1286462346_36_0" index="0" disallow="tram rail_urban rail rail_electric rail_fast ship" speed="11.33" length="19.33" shape="9055.46,9162.33 9057.40,9156.76 9062.06,9152.44 9068.95,9150.81"/>
    </edge>
    <edge id=":1286462346_37" function="internal">
        <lane id=":1286462346_37_0" index="0" disallow="tram rail_urban rail rail_electric rail_fast ship" speed="10.82" length="19.11" shape="9055.20,9164.83 9057.56,9159.15 9062.23,9155.44 9069.07,9154.01"/>
    </edge>
    <edge id=":1286462346_38" function="internal">
        <lane id=":1286462346_38_0" index="0" disallow="tram rail_urban rail rail_electric rail_fast ship" speed="10.30" length="18.03" shape="9055.22,9166.46 9057.72,9161.55 9062.39,9158.43 9069.18,9157.21"/>
    </edge>
    <edge id=":1286462346_9" function="internal">
        <lane id=":1286462346_9_0" index="0" disallow="tram rail_urban rail rail_electric rail_fast ship" speed="6.41" length="9.04" shape="9069.53,9166.80 9067.07,9167.24 9065.39,9168.37 9064.47,9170.17 9064.32,9172.66"/>
        <lane id=":1286462346_9_1" index="1" disallow="tram rail_urban rail rail_electric rail_fast ship" speed="7.24" length="11.81" shape="9069.53,9166.80 9065.67,9167.30 9062.99,9168.49 9061.47,9170.36 9061.13,9172.92"/>
        <lane id=":1286462346_9_2" index="2" disallow="tram rail_urban rail rail_electric rail_fast ship" speed="8.01" length="14.72" shape="9069.53,9166.80 9064.27,9167.36 9060.59,9168.61 9058.48,9170.55 9057.94,9173.18"/>
    </edge>
    <edge id=":1286462346_12" function="internal">
        <lane id=":1286462346_12_0" index="0" disallow="tram rail_urban rail rail_electric rail_fast ship" speed="22.22" length="28.31" shape="9069.41,9163.60 9061.05,9164.40 9055.41,9165.71 9049.76,9167.02 9041.40,9167.83"/>
        <lane id=":1286462346_12_1" index="1" disallow="tram rail_urban rail rail_electric rail_fast ship" speed="22.22" length="28.31" shape="9069.41,9163.60 9041.28,9164.64"/>
        <lane id=":1286462346_12_2" index="2" disallow="tram rail_urban rail rail_electric rail_fast ship" speed="22.22" length="28.31" shape="9069.41,9163.60 9061.02,9163.40 9055.29,9162.51 9049.56,9161.62 9041.16,9161.44"/>
    </edge>
    <edge id=":1286462346_15" function="internal">
        <lane id=":1286462346_15_0" index="0" disallow="tram rail_urban rail rail_electric rail_fast ship" speed="11.78" length="11.78" shape="9069.30,9160.41 9059.60,9159.80 9057.66,9159.09"/>
        <lane id=":1286462346_15_1" index="1" disallow="tram rail_urban rail rail_electric rail_fast ship" speed="11.28" length="8.78" shape="9069.30,9160.41 9061.00,9159.74 9060.58,9159.55"/>
        <lane id=":1286462346_15_2" index="2" disallow="tram rail_urban rail rail_electric rail_fast ship" speed="10.78" length="7.08" shape="9069.30,9160.41 9062.40,9159.68 9062.27,9159.61"/>
    </edge>
    <edge id=":1286462346_39" function="internal">
        <lane id=":1286462346_39_0" index="0" disallow="tram rail_urban rail rail_electric rail_fast ship" speed="11.78" length="18.88" shape="9057.66,9159.09 9052.49,9157.19 9047.94,9152.58 9045.98,9145.97"/>
    </edge>
    <edge id=":1286462346_40" function="internal">
        <lane id=":1286462346_40_0" index="0" disallow="tram rail_urban rail rail_electric rail_fast ship" speed="11.28" length="19.26" shape="9060.58,9159.55 9054.88,9157.06 9050.94,9152.38 9049.16,9145.68"/>
    </edge>
    <edge id=":1286462346_41" function="internal">
        <lane id=":1286462346_41_0" index="0" disallow="tram rail_urban rail rail_electric rail_fast ship" speed="10.78" length="18.44" shape="9062.27,9159.61 9057.28,9156.93 9053.93,9152.17 9052.35,9145.40"/>
    </edge>
    <edge id=":1286462346_18" function="internal">
        <lane id=":1286462346_18_0" index="0" disallow="tram rail_urban rail rail_electric rail_fast ship" speed="7.14" length="10.63" shape="9061.91,9144.55 9062.57,9147.37 9063.96,9149.36 9066.09,9150.51 9068.95,9150.81"/>
        <lane id=":1286462346_18_1" index="1" disallow="tram rail_urban rail rail_electric rail_fast ship" speed="7.89" length="13.22" shape="9061.91,9144.55 9062.68,9148.77 9064.13,9151.76 9066.26,9153.50 9069.07,9154.01"/>
        <lane id=":1286462346_18_2" index="2" disallow="tram rail_urban rail rail_electric rail_fast ship" speed="8.62" length="15.96" shape="9061.91,9144.55 9062.80,9150.17 9064.31,9154.15 9066.43,9156.50 9069.18,9157.21"/>
    </edge>
    <edge id=":1286462346_21" function="internal">
        <lane id=":1286462346_21_0" index="0" disallow="tram rail_urban rail rail_electric rail_fast ship" speed="22.22" length="28.35" shape="9058.72,9144.83 9059.97,9153.15 9061.56,9158.74 9063.13,9164.33 9064.32,9172.66"/>
        <lane id=":1286462346_21_1" index="1" disallow="tram rail_urban rail rail_electric rail_fast ship" speed="22.22" length="28.35" shape="9058.72,9144.83 9061.13,9172.92"/>
        <lane id=":1286462346_21_2" index="2" disallow="tram rail_urban rail rail_electric rail_fast ship" speed="22.22" length="28.35" shape="9058.72,9144.83 9058.97,9153.23 9058.37,9159.00 9057.75,9164.77 9057.94,9173.18"/>
    </edge>
    <edge id=":1286462346_24" function="internal">
        <lane id=":1286462346_24_0" index="0" disallow="tram rail_urban rail rail_electric rail_fast ship" speed="11.32" length="11.28" shape="9055.54,9145.12 9055.40,9154.83 9054.89,9156.31"/>
        <lane id=":1286462346_24_1" index="1" disallow="tram rail_urban rail rail_electric rail_fast ship" speed="10.81" length="8.66" shape="9055.54,9145.12 9055.28,9153.43 9055.15,9153.75"/>
        <lane id=":1286462346_24_2" index="2" disallow="tram rail_urban rail rail_electric rail_fast ship" speed="10.29" length="7.03" shape="9055.54,9145.12 9055.17,9152.03 9055.12,9152.13"/>
    </edge>
    <edge id=":1286462346_42" function="internal">
        <lane id=":1286462346_42_0" index="0" disallow="tram rail_urban rail rail_electric rail_fast ship" speed="11.32" length="19.34" shape="9054.89,9156.31 9052.99,9161.85 9048.33,9166.19 9041.40,9167.83"/>
    </edge>
    <edge id=":1286462346_43" function="internal">
        <lane id=":1286462346_43_0" index="0" disallow="tram rail_urban rail rail_electric rail_fast ship" speed="10.81" length="19.16" shape="9055.15,9153.75 9052.82,9159.46 9048.15,9163.19 9041.28,9164.64"/>
    </edge>
    <edge id=":1286462346_44" function="internal">
        <lane id=":1286462346_44_0" index="0" disallow="tram rail_urban rail rail_electric rail_fast ship" speed="10.29" length="18.07" shape="9055.12,9152.13 9052.65,9157.06 9047.98,9160.20 9041.16,9161.44"/>
    </edge>
    <edge id=":1286462346_27" function="internal">
        <lane id=":1286462346_27_0" index="0" disallow="tram rail_urban rail rail_electric rail_fast ship" speed="6.40" length="9.04" shape="9040.80,9151.85 9043.25,9151.40 9044.93,9150.27 9045.84,9148.46 9045.98,9145.97"/>
        <lane id=":1286462346_27_1" index="1" disallow="tram rail_urban rail rail_electric rail_fast ship" speed="7.22" length="11.82" shape="9040.80,9151.85 9044.65,9151.34 9047.33,9150.14 9048.84,9148.26 9049.16,9145.68"/>
        <lane id=":1286462346_27_2" index="2" disallow="tram rail_urban rail rail_electric rail_fast ship" speed="8.00" length="14.74" shape="9040.80,9151.85 9046.05,9151.27 9049.73,9150.01 9051.83,9148.05 9052.35,9145.40"/>
    </edge>
    <edge id=":1286462346_30" function="internal">
        <lane id=":1286462346_30_0" index="0" disallow="tram rail_urban rail rail_electric rail_fast ship" speed="22.22" length="28.33" shape="9040.92,9155.04 9049.28,9154.23 9054.94,9152.92 9060.59,9151.61 9068.95,9150.81"/>
        <lane id=":1286462346_30_1" index="1" disallow="tram rail_urban rail rail_electric rail_fast ship" speed="22.22" length="28.33" shape="9040.92,9155.04 9069.07,9154.01"/>
        <lane id=":1286462346_30_2" index="2" disallow="tram rail_urban rail rail_electric rail_fast ship" speed="22.22" length="28.33" shape="9040.92,9155.04 9049.32,9155.23 9055.05,9156.12 9060.78,9157.01 9069.18,9157.21"/>
    </edge>
    <edge id=":1286462346_33" function="internal">
        <lane id=":1286462346_33_0" index="0" disallow="tram rail_urban rail rail_electric rail_fast ship" speed="11.73" length="11.83" shape="9041.04,9158.24 9050.76,9158.83 9052.73,9159.55"/>
        <lane id=":1286462346_33_1" index="1" disallow="tram rail_urban rail rail_electric rail_fast ship" speed="11.24" length="8.82" shape="9041.04,9158.24 9049.36,9158.89 9049.79,9159.08"/>
        <lane id=":1286462346_33_2" index="2" disallow="tram rail_urban rail rail_electric rail_fast ship" speed="10.73" length="7.11" shape="9041.04,9158.24 9047.96,9158.95 9048.10,9159.03"/>
    </edge>
    <edge id=":1286462346_45" function="internal">
        <lane id=":1286462346_45_0" index="0" disallow="tram rail_urban rail rail_electric rail_fast ship" speed="11.73" length="18.83" shape="9052.73,9159.55 9057.88,9161.43 9062.39,9166.04 9064.32,9172.66"/>
    </edge>
    <edge id=":1286462346_46" function="internal">
        <lane id=":1286462346_46_0" index="0" disallow="tram rail_urban rail rail_electric rail_fast ship" speed="11.24" length="19.21" shape="9049.79,9159.08 9055.48,9161.56 9059.40,9166.23 9061.13,9172.92"/>
    </edge>
    <edge id=":1286462346_47" function="internal">
        <lane id=":1286462346_47_0" index="0" disallow="tram rail_urban rail rail_electric rail_fast ship" speed="10.73" length="18.36" shape="9048.10,9159.03 9053.08,9161.68 9056.41,9166.42 9057.94,9173.18"/>
    </edge>
    <edge id=":1286462788_0" function="internal">
        <lane id=":1286462788_0_0" index="0" disallow="tram rail_urban rail rail_electric rail_fast ship" speed="7.06" length="10.45" shape="9003.13,8626.58 9002.51,8623.79 9001.16,8621.83 8999.07,8620.70 8996.25,8620.40"/>
        <lane id=":1286462788_0_1" index="1" disallow="tram rail_urban rail rail_electric rail_fast ship" speed="7.82" length="13.06" shape="9003.13,8626.58 9002.41,8622.39 9001.00,8619.43 8998.91,8617.70 8996.13,8617.20"/>
        <lane id=":1286462788_0_2" index="2" disallow="tram rail_urban rail rail_electric rail_fast ship" speed="8.55" length="15.82" shape="9003.13,8626.58 9002.31,8621.00 9000.85,8617.04 8998.75,8614.71 8996.02,8614.00"/>
    </edge>
    <edge id=":1286462788_3" function="internal">
        <lane id=":1286462788_3_0" index="0" disallow="tram rail_urban rail rail_electric rail_fast ship" speed="22.22" length="28.29" shape="9006.32,8626.33 9005.16,8618.02 9003.62,8612.44 9002.06,8606.86 9000.89,8598.55"/>
        <lane id=":1286462788_3_1" index="1" disallow="tram rail_urban rail rail_electric rail_fast ship" speed="22.22" length="28.29" shape="9006.32,8626.33 9004.08,8598.29"/>
        <lane id=":1286462788_3_2" index="2" disallow="tram rail_urban rail rail_electric rail_fast ship" speed="22.22" length="28.29" shape="9006.32,8626.33 9006.16,8617.94 9006.81,8612.18 9007.45,8606.42 9007.27,8598.03"/>
    </edge>
    <edge id=":1286462788_6" function="internal">
        <lane id=":1286462788_6_0" index="0" disallow="tram rail_urban rail rail_electric rail_fast ship" speed="11.32" length="11.23" shape="9009.51,8626.08 9009.75,8616.38 9010.26,8614.94"/>
        <lane id=":1286462788_6_1" index="1" disallow="tram rail_urban rail rail_electric rail_fast ship" speed="10.81" length="8.66" shape="9009.51,8626.08 9009.85,8617.77 9009.99,8617.46"/>
        <lane id=":1286462788_6_2" index="2" disallow="tram rail_urban rail rail_electric rail_fast ship" speed="10.29" length="7.03" shape="9009.51,8626.08 9009.95,8619.17 9010.00,8619.08"/>
    </edge>
    <edge id=":1286462788_36" function="internal">
        <lane id=":1286462788_36_0" index="0" disallow="tram rail_urban rail rail_electric rail_fast ship" speed="11.32" length="19.38" shape="9010.26,8614.94 9012.23,8609.38 9016.94,8605.09 9023.87,8603.51"/>
    </edge>
    <edge id=":1286462788_37" function="internal">
        <lane id=":1286462788_37_0" index="0" disallow="tram rail_urban rail rail_electric rail_fast ship" speed="10.81" length="19.16" shape="9009.99,8617.46 9012.38,8611.78 9017.08,8608.09 9023.96,8606.71"/>
    </edge>
    <edge id=":1286462788_38" function="internal">
        <lane id=":1286462788_38_0" index="0" disallow="tram rail_urban rail rail_electric rail_fast ship" speed="10.29" length="18.07" shape="9010.00,8619.08 9012.53,8614.17 9017.23,8611.09 9024.05,8609.91"/>
    </edge>
    <edge id=":1286462788_9" function="internal">
        <lane id=":1286462788_9_0" index="0" disallow="tram rail_urban rail rail_electric rail_fast ship" speed="6.40" length="9.04" shape="9024.32,8619.51 9021.86,8619.93 9020.17,8621.04 9019.24,8622.84 9019.08,8625.33"/>
        <lane id=":1286462788_9_1" index="1" disallow="tram rail_urban rail rail_electric rail_fast ship" speed="7.23" length="11.82" shape="9024.32,8619.51 9020.46,8619.98 9017.77,8621.15 9016.24,8623.02 9015.89,8625.58"/>
        <lane id=":1286462788_9_2" index="2" disallow="tram rail_urban rail rail_electric rail_fast ship" speed="8.00" length="14.74" shape="9024.32,8619.51 9019.06,8620.03 9015.37,8621.26 9013.25,8623.19 9012.70,8625.83"/>
    </edge>
    <edge id=":1286462788_12" function="internal">
        <lane id=":1286462788_12_0" index="0" disallow="tram rail_urban rail rail_electric rail_fast ship" speed="27.78" length="28.27" shape="9024.23,8616.31 9015.88,8617.04 9010.24,8618.31 9004.59,8619.60 8996.25,8620.40"/>
        <lane id=":1286462788_12_1" index="1" disallow="tram rail_urban rail rail_electric rail_fast ship" speed="27.78" length="28.27" shape="9024.23,8616.31 8996.13,8617.20"/>
        <lane id=":1286462788_12_2" index="2" disallow="tram rail_urban rail rail_electric rail_fast ship" speed="27.78" length="28.27" shape="9024.23,8616.31 9015.84,8616.04 9010.12,8615.11 9004.40,8614.20 8996.02,8614.00"/>
    </edge>
    <edge id=":1286462788_15" function="internal">
        <lane id=":1286462788_15_0" index="0" disallow="tram rail_urban rail rail_electric rail_fast ship" speed="11.78" length="11.83" shape="9024.14,8613.11 9014.43,8612.43 9012.46,8611.69"/>
        <lane id=":1286462788_15_1" index="1" disallow="tram rail_urban rail rail_electric rail_fast ship" speed="11.28" length="8.82" shape="9024.14,8613.11 9015.83,8612.38 9015.39,8612.18"/>
        <lane id=":1286462788_15_2" index="2" disallow="tram rail_urban rail rail_electric rail_fast ship" speed="10.78" length="7.11" shape="9024.14,8613.11 9017.23,8612.33 9017.09,8612.25"/>
    </edge>
    <edge id=":1286462788_39" function="internal">
        <lane id=":1286462788_39_0" index="0" disallow="tram rail_urban rail rail_electric rail_fast ship" speed="11.78" length="18.83" shape="9012.46,8611.69 9007.32,8609.77 9002.80,8605.15 9000.89,8598.55"/>
    </edge>
    <edge id=":1286462788_40" function="internal">
        <lane id=":1286462788_40_0" index="0" disallow="tram rail_urban rail rail_electric rail_fast ship" speed="11.28" length="19.22" shape="9015.39,8612.18 9009.72,8609.66 9005.80,8604.97 9004.08,8598.29"/>
    </edge>
    <edge id=":1286462788_41" function="internal">
        <lane id=":1286462788_41_0" index="0" disallow="tram rail_urban rail rail_electric rail_fast ship" speed="10.78" length="18.40" shape="9017.09,8612.25 9012.12,8609.56 9008.79,8604.79 9007.27,8598.03"/>
    </edge>
    <edge id=":1286462788_18" function="internal">
        <lane id=":1286462788_18_0" index="0" disallow="tram rail_urban rail rail_electric rail_fast ship" speed="7.14" length="10.62" shape="9016.84,8597.25 9017.47,8600.06 9018.86,8602.04 9020.99,8603.19 9023.87,8603.51"/>
        <lane id=":1286462788_18_1" index="1" disallow="tram rail_urban rail rail_electric rail_fast ship" speed="7.89" length="13.20" shape="9016.84,8597.25 9017.57,8601.46 9019.01,8604.44 9021.14,8606.19 9023.96,8606.71"/>
        <lane id=":1286462788_18_2" index="2" disallow="tram rail_urban rail rail_electric rail_fast ship" speed="8.62" length="15.94" shape="9016.84,8597.25 9017.68,8602.85 9019.16,8606.83 9021.29,8609.18 9024.05,8609.91"/>
    </edge>
    <edge id=":1286462788_21" function="internal">
        <lane id=":1286462788_21_0" index="0" disallow="tram rail_urban rail rail_electric rail_fast ship" speed="22.22" length="28.32" shape="9013.65,8597.51 9014.82,8605.83 9016.38,8611.42 9017.92,8617.01 9019.08,8625.33"/>
        <lane id=":1286462788_21_1" index="1" disallow="tram rail_urban rail rail_electric rail_fast ship" speed="22.22" length="28.32" shape="9013.65,8597.51 9015.89,8625.58"/>
        <lane id=":1286462788_21_2" index="2" disallow="tram rail_urban rail rail_electric rail_fast ship" speed="22.22" length="28.32" shape="9013.65,8597.51 9013.83,8605.91 9013.19,8611.67 9012.54,8617.43 9012.70,8625.83"/>
    </edge>
    <edge id=":1286462788_24" function="internal">
        <lane id=":1286462788_24_0" index="0" disallow="tram rail_urban rail rail_electric rail_fast ship" speed="11.33" length="11.26" shape="9010.46,8597.77 9010.24,8607.46 9009.72,8608.94"/>
        <lane id=":1286462788_24_1" index="1" disallow="tram rail_urban rail rail_electric rail_fast ship" speed="10.82" length="8.65" shape="9010.46,8597.77 9010.14,8606.06 9010.00,8606.38"/>
        <lane id=":1286462788_24_2" index="2" disallow="tram rail_urban rail rail_electric rail_fast ship" speed="10.30" length="7.01" shape="9010.46,8597.77 9010.03,8604.66 9009.98,8604.76"/>
    </edge>
    <edge id=":1286462788_42" function="internal">
        <lane id=":1286462788_42_0" index="0" disallow="tram rail_urban rail rail_electric rail_fast ship" speed="11.33" length="19.27" shape="9009.72,8608.94 9007.80,8614.45 9003.14,8618.77 8996.25,8620.40"/>
    </edge>
    <edge id=":1286462788_43" function="internal">
        <lane id=":1286462788_43_0" index="0" disallow="tram rail_urban rail rail_electric rail_fast ship" speed="10.82" length="19.10" shape="9010.00,8606.38 9007.64,8612.06 9002.98,8615.77 8996.13,8617.20"/>
    </edge>
    <edge id=":1286462788_44" function="internal">
        <lane id=":1286462788_44_0" index="0" disallow="tram rail_urban rail rail_electric rail_fast ship" speed="10.30" length="18.02" shape="9009.98,8604.76 9007.48,8609.66 9002.81,8612.78 8996.02,8614.00"/>
    </edge>
    <edge id=":1286462788_27" function="internal">
        <lane id=":1286462788_27_0" index="0" disallow="tram rail_urban rail rail_electric rail_fast ship" speed="6.41" length="9.04" shape="8995.68,8604.41 8998.13,8603.96 8999.82,8602.84 9000.73,8601.04 9000.89,8598.55"/>
        <lane id=":1286462788_27_1" index="1" disallow="tram rail_urban rail rail_electric rail_fast ship" speed="7.24" length="11.81" shape="8995.68,8604.41 8999.53,8603.91 9002.21,8602.72 9003.73,8600.85 9004.08,8598.29"/>
        <lane id=":1286462788_27_2" index="2" disallow="tram rail_urban rail rail_electric rail_fast ship" speed="8.01" length="14.72" shape="8995.68,8604.41 9000.93,8603.85 9004.61,8602.60 9006.72,8600.66 9007.27,8598.03"/>
    </edge>
    <edge id=":1286462788_30" function="internal">
        <lane id=":1286462788_30_0" index="0" disallow="tram rail_urban rail rail_electric rail_fast ship" speed="27.78" length="28.34" shape="8995.79,8607.61 9004.17,8606.81 9009.83,8605.52 9015.50,8604.25 9023.87,8603.51"/>
        <lane id=":1286462788_30_1" index="1" disallow="tram rail_urban rail rail_electric rail_fast ship" speed="27.78" length="28.34" shape="8995.79,8607.61 9023.96,8606.71"/>
        <lane id=":1286462788_30_2" index="2" disallow="tram rail_urban rail rail_electric rail_fast ship" speed="27.78" length="28.34" shape="8995.79,8607.61 9004.19,8607.81 9009.92,8608.72 9015.65,8609.65 9024.05,8609.91"/>
    </edge>
    <edge id=":1286462788_33" function="internal">
        <lane id=":1286462788_33_0" index="0" disallow="tram rail_urban rail rail_electric rail_fast ship" speed="11.73" length="11.77" shape="8995.91,8610.80 9005.59,8611.42 9007.53,8612.13"/>
        <lane id=":1286462788_33_1" index="1" disallow="tram rail_urban rail rail_electric rail_fast ship" speed="11.23" length="8.77" shape="8995.91,8610.80 9004.19,8611.47 9004.61,8611.66"/>
        <lane id=":1286462788_33_2" index="2" disallow="tram rail_urban rail rail_electric rail_fast ship" speed="10.72" length="7.07" shape="8995.91,8610.80 9002.79,8611.53 9002.92,8611.60"/>
    </edge>
    <edge id=":1286462788_45" function="internal">
        <lane id=":1286462788_45_0" index="0" disallow="tram rail_urban rail rail_electric rail_fast ship" speed="11.73" length="18.87" shape="9007.53,8612.13 9012.68,8614.04 9017.18,8618.68 9019.08,8625.33"/>
    </edge>
    <edge id=":1286462788_46" function="internal">
        <lane id=":1286462788_46_0" index="0" disallow="tram rail_urban rail rail_electric rail_fast ship" speed="11.23" length="19.24" shape="9004.61,8611.66 9010.29,8614.16 9014.18,8618.86 9015.89,8625.58"/>
    </edge>
    <edge id=":1286462788_47" function="internal">
        <lane id=":1286462788_47_0" index="0" disallow="tram rail_urban rail rail_electric rail_fast ship" speed="10.72" length="18.39" shape="9002.92,8611.60 9007.89,8614.28 9011.19,8619.05 9012.70,8625.83"/>
    </edge>
    <edge id=":2395874691_0" function="internal">
        <lane id=":2395874691_0_0" index="0" disallow="tram rail_urban rail rail_electric rail_fast ship" speed="6.43" length="9.03" shape="7959.54,8669.22 7959.17,8666.76 7958.09,8665.04 7956.32,8664.06 7953.84,8663.82"/>
        <lane id=":2395874691_0_1" index="1" disallow="tram rail_urban rail rail_electric rail_fast ship" speed="7.25" length="11.79" shape="7959.54,8669.22 7959.15,8665.36 7958.04,8662.64 7956.22,8661.06 7953.70,8660.62"/>
        <lane id=":2395874691_0_2" index="2" disallow="tram rail_urban rail rail_electric rail_fast ship" speed="8.03" length="14.69" shape="7959.54,8669.22 7959.13,8663.96 7957.99,8660.24 7956.13,8658.07 7953.55,8657.43"/>
    </edge>
    <edge id=":2395874691_3" function="internal">
        <lane id=":2395874691_3_0" index="0" disallow="tram rail_urban rail rail_electric rail_fast ship" speed="27.78" length="27.91" shape="7962.74,8669.20 7962.17,8660.94 7961.01,8655.34 7959.85,8649.75 7959.24,8641.49"/>