<?xml version="1.0" encoding="UTF-8"?>

<!-- generated on 2023-04-23 20:42:34 by Eclipse SUMO netedit Version 1.16.0
-->

<routes xmlns:xsi="http://www.w3.org/2001/XMLSchema-instance" xsi:noNamespaceSchemaLocation="http://sumo.dlr.de/xsd/routes_file.xsd">
    <!-- Vehicles, persons and containers (sorted by depart) -->
    <flow id="f_0" begin="0.00" from="4350453#2" to="673029551#1" via="674577847#1 674577847#3 674577847#5 834097579#2 834097579#5 331183273#1" end="900.00" vehsPerHour="300.00"/>
    <flow id="f_1" begin="0.00" from="571884279#1" to="673029536#8" via="514391102 4350454 831638481#1 831638481#3 673029536#3 673029536#6" end="900.00" vehsPerHour="310.99"/>
    <flow id="f_10" begin="0.00" from="585017417#0.578" to="4856249#7" via="674577847#3" end="3600.00" vehsPerHour="240.00"/>
    <flow id="f_11" begin="0.00" from="-4856249#8.663" to="504565897#4" via="674577847#5" end="3600.00" vehsPerHour="240.00"/>
    <flow id="f_12" begin="0.00" from="674359419#0" to="578410814#5" via="834097579#2" end="3600.00" vehsPerHour="240.00"/>
    <flow id="f_13" begin="0.00" from="-578410814#7.241" to="594458432#0" via="834097579#5" end="3600.00" vehsPerHour="240.00"/>
    <flow id="f_14" begin="0.00" from="576780820#1.55" to="514391101#1" via="331183273#1" end="3600.00" vehsPerHour="240.00"/>
    <flow id="f_15" begin="0.00" from="-514391101#2.33" to="673029551#1" end="3600.00" vehsPerHour="240.00"/>
    <flow id="f_16" begin="0.00" from="571884279#1" to="-594805183#1" end="3600.00" vehsPerHour="240.00"/>
    <flow id="f_17" begin="0.00" from="594805183#0" to="594458434" via="514391102" end="3600.00" vehsPerHour="240.00"/>
    <flow id="f_18" begin="0.00" from="594805179#0" to="-578410814#3" via="4350454" end="3600.00" vehsPerHour="240.00"/>
    <flow id="f_19" begin="0.00" from="578410814#1" to="674359419#2" via="831638481#1" end="3600.00" vehsPerHour="240.00"/>
    <flow id="f_20" begin="0.00" from="504565897#0" to="-4856249#5" via="831638481#3" end="3600.00" vehsPerHour="240.00"/>
    <flow id="f_21" begin="0.00" from="4856249#0.1515" to="585017417#2" via="673029536#3" end="3600.00" vehsPerHour="240.00"/>
    <flow id="f_22" begin="0.00" from="595988776#0.556" to="578316484#2" via="673029536#6" end="3600.00" vehsPerHour="240.00"/>
    <flow id="f_23" begin="0.00" from="-578316484#2" to="673029536#8" end="3600.00" vehsPerHour="240.00"/>
    <flow id="f_24" begin="0.00" from="4350453#2" to="578316484#2" end="900.00" vehsPerHour="240.00"/>
    <flow id="f_25" begin="0.00" from="-578316484#2" to="585017417#2" via="674577847#1" end="900.00" vehsPerHour="350.00"/>
    <flow id="f_26" begin="0.00" from="595988776#0.556" to="-4856249#5" via="674577847#3" end="900.00" vehsPerHour="270.01"/>
    <flow id="f_27" begin="0.00" from="4856249#0.1515" to="674359419#2" via="674577847#5" end="900.00" vehsPerHour="270.01"/>
    <flow id="f_28" begin="0.00" from="504565897#0" to="-578410814#3" via="834097579#2" end="900.00" vehsPerHour="360.00"/>
    <flow id="f_29" begin="0.00" from="578410814#1" to="594458434" via="834097579#5" end="900.00" vehsPerHour="320.00"/>
    <flow id="f_30" begin="0.00" from="594805179#0" to="-594805183#1" via="331183273#1" end="900.00" vehsPerHour="320.00"/>
    <flow id="f_31" begin="0.00" from="594805183#0" to="673029551#1" end="900.00" vehsPerHour="180.00"/>
    <flow id="f_32" begin="0.00" from="571884279#1" to="514391101#1" end="900.00" vehsPerHour="180.00"/>
    <flow id="f_33" begin="0.00" from="-514391101#2.33" to="594458432#0" via="514391102" end="900.00" vehsPerHour="250.00"/>
    <flow id="f_34" begin="0.00" from="576780820#1.55" to="578410814#5" via="4350454" end="900.00" vehsPerHour="270.01"/>
    <flow id="f_35" begin="0.00" from="-578410814#7.241" to="504565897#4" via="831638481#1" end="900.00" vehsPerHour="290.00"/>
    <flow id="f_36" begin="0.00" from="674359419#0" to="4856249#7" via="831638481#3" end="900.00" vehsPerHour="270.00"/>
    <flow id="f_37" begin="0.00" from="-4856249#8.663" to="595988776#5" via="673029536#3" end="900.00" vehsPerHour="290.00"/>
    <flow id="f_38" begin="0.00" from="585017417#0.578" to="-578316484#0" via="673029536#6" end="900.00" vehsPerHour="280.00"/>
    <flow id="f_39" begin="0.00" from="578316484#0.702" to="673029536#8" end="900.00" vehsPerHour="290.00"/>
    <flow id="f_8" begin="0.00" from="4350453#2" to="-578316484#0" end="3600.00" vehsPerHour="240.00"/>
    <flow id="f_9" begin="0.00" from="578316484#0.702" to="595988776#5" via="674577847#1" end="3600.00" vehsPerHour="340.00"/>

    <flow id="f_70" begin="0.00" from="-578316484#2" to="-578316484#0" end="900.00" vehsPerHour="180.00"/>
    <flow id="f_71" begin="0.00" from="578316484#0.702" to="578316484#2" end="900.00" vehsPerHour="270.01"/>
    <flow id="f_72" begin="0.00" from="594805179#0" to="594458432#0" end="900.00" vehsPerHour="260.00"/>
    <flow id="f_73" begin="0.00" from="576780820#1.55" to="594458434" end="900.00" vehsPerHour="269.99"/>
    <flow id="f_74" begin="0.00" from="594805183#0" to="514391101#1" end="900.00" vehsPerHour="200.00"/>
    <flow id="f_75" begin="0.00" from="-514391101#2.33" to="-594805183#1" end="900.00" vehsPerHour="290.00"/>
    <flow id="f_76" begin="0.00" from="595988776#0.556" to="595988776#5" end="900.00" vehsPerHour="220.00"/>
    <flow id="f_77" begin="0.00" from="585017417#0.578" to="585017417#2" end="900.00" vehsPerHour="190.00"/>
    <flow id="f_78" begin="0.00" from="4856249#0.1515" to="4856249#7" end="900.00" vehsPerHour="210.00"/>
    <flow id="f_79" begin="0.00" from="-4856249#8.663" to="-4856249#5" end="900.00" vehsPerHour="270.01"/>
    <flow id="f_80" begin="0.00" from="504565897#0" to="504565897#4" end="900.00" vehsPerHour="270.01"/>
    <flow id="f_81" begin="0.00" from="674359419#0" to="674359419#2" end="900.00" vehsPerHour="180.00"/>
    <flow id="f_82" begin="0.00" from="578410814#1" to="578410814#5" end="900.00" vehsPerHour="180.00"/>
    <flow id="f_83" begin="0.00" from="-578410814#7.241" to="-578410814#3" end="900.00" vehsPerHour="240.00"/>

    <flow id="f_126" begin="0.00" from="-514391101#2.33" to="578410814#5" via="514391102 4350454" end="900.00" vehsPerHour="100.00"/>
    <flow id="f_127" begin="0.00" from="576780820#1.55" to="504565897#4" via="4350454 831638481#1" end="900.00" vehsPerHour="120.00"/>
    <flow id="f_128" begin="0.00" from="594805179#0" to="-594805183#1" via="331183273#1" end="900.00" vehsPerHour="80.00"/>
    <flow id="f_129" begin="0.00" from="-578410814#7.241" to="4856249#7" via="831638481#1 831638481#3" end="900.00" vehsPerHour="120.00"/>
    <flow id="f_130" begin="0.00" from="674359419#0" to="595988776#5" via="831638481#3 673029536#3" end="900.00" vehsPerHour="100.00"/>
    <flow id="f_131" begin="0.00" from="585017417#0.578" to="-578316484#0" via="673029536#6" end="900.00" vehsPerHour="100.00"/>
    <flow id="f_132" begin="0.00" from="-578316484#2" to="-4856249#5" via="674577847#1 674577847#3" end="900.00" vehsPerHour="100.00"/>
    <flow id="f_133" begin="0.00" from="595988776#0.556" to="674359419#2" via="674577847#3 674577847#5" end="900.00" vehsPerHour="50.00"/>
    <flow id="f_134" begin="0.00" from="4856249#0.1515" to="-578410814#3" via="674577847#5 834097579#2" end="900.00" vehsPerHour="150.00"/>
    <flow id="f_135" begin="0.00" from="504565897#0" to="594458434" via="834097579#2 834097579#5" end="900.00" vehsPerHour="90.00"/>
    <flow id="f_136" begin="0.00" from="578410814#1" to="-594805183#1" via="834097579#5 331183273#1" end="900.00" vehsPerHour="80.00"/>

    <flow id="f_2" begin="900.00" from="571884279#1" to="673029536#8" via="514391102 4350454 831638481#1 831638481#3 673029536#3 673029536#6" end="1800.00" vehsPerHour="270.00"/>
    <flow id="f_3" begin="900.00" from="4350453#2" to="673029551#1" via="674577847#1 674577847#3 674577847#5 834097579#2 834097579#5 331183273#1" end="1800.00" vehsPerHour="250.00"/>
    <flow id="f_40" begin="900.00" from="-578316484#2" to="673029536#8" end="1800.00" vehsPerHour="290.00"/>
    <flow id="f_41" begin="900.00" from="-578316484#2" to="585017417#2" via="674577847#1" end="1800.00" vehsPerHour="290.00"/>
    <flow id="f_42" begin="900.00" from="595988776#0.556" to="-4856249#5" via="674577847#3" end="1800.00" vehsPerHour="320.00"/>
    <flow id="f_43" begin="900.00" from="4856249#0.1515" to="674359419#2" via="674577847#5" end="1800.00" vehsPerHour="270.00"/>
    <flow id="f_44" begin="900.00" from="504565897#0" to="-578410814#3" via="834097579#2" end="1800.00" vehsPerHour="350.00"/>
    <flow id="f_45" begin="900.00" from="578410814#1" to="594458434" via="834097579#5" end="1800.00" vehsPerHour="340.00"/>
    <flow id="f_46" begin="900.00" from="594805179#0" to="-594805183#1" via="331183273#1" end="1800.00" vehsPerHour="320.00"/>
    <flow id="f_47" begin="900.00" from="571884279#1" to="514391101#1" end="1800.00" vehsPerHour="180.00"/>
    <flow id="f_48" begin="900.00" from="-514391101#2.33" to="594458432#0" via="514391102" end="1800.00" vehsPerHour="300.00"/>
    <flow id="f_49" begin="900.00" from="576780820#1.55" to="578410814#5" via="4350454" end="1800.00" vehsPerHour="330.00"/>
    <flow id="f_50" begin="900.00" from="-578410814#7.241" to="504565897#4" via="831638481#1" end="1800.00" vehsPerHour="250.00"/>
    <flow id="f_51" begin="900.00" from="674359419#0" to="4856249#7" via="831638481#3" end="1800.00" vehsPerHour="270.01"/>
    <flow id="f_52" begin="900.00" from="-4856249#8.663" to="595988776#5" via="673029536#3" end="1800.00" vehsPerHour="250.00"/>
    <flow id="f_53" begin="900.00" from="585017417#0.578" to="-578316484#0" via="673029536#6" end="1800.00" vehsPerHour="260.00"/>
    <flow id="f_54" begin="900.00" from="578316484#0.702" to="673029536#8" end="1800.00" vehsPerHour="190.00"/>

    <flow id="f_84" begin="900.00" from="-578316484#2" to="-578316484#0" end="1800.00" vehsPerHour="250.00"/>
    <flow id="f_85" begin="900.00" from="578316484#0.702" to="578316484#2" end="1800.00" vehsPerHour="270.00"/>
    <flow id="f_86" begin="900.00" from="595988776#0.556" to="595988776#5" end="1800.00" vehsPerHour="240.00"/>
    <flow id="f_87" begin="900.00" from="585017417#0.578" to="585017417#2" end="1800.00" vehsPerHour="210.00"/>
    <flow id="f_88" begin="900.00" from="4856249#0.1515" to="4856249#7" end="1800.00" vehsPerHour="260.00"/>
    <flow id="f_89" begin="900.00" from="-4856249#8.663" to="-4856249#5" end="1800.00" vehsPerHour="280.00"/>
    <flow id="f_90" begin="900.00" from="504565897#0" to="504565897#4" end="1800.00" vehsPerHour="249.99"/>
    <flow id="f_91" begin="900.00" from="674359419#0" to="674359419#2" end="1800.00" vehsPerHour="230.00"/>
    <flow id="f_92" begin="900.00" from="578410814#1" to="578410814#5" end="1800.00" vehsPerHour="289.99"/>
    <flow id="f_93" begin="900.00" from="-578410814#7.241" to="-578410814#3" end="1800.00" vehsPerHour="200.00"/>
    <flow id="f_94" begin="900.00" from="594805179#0" to="594458432#0" end="1800.00" vehsPerHour="200.00"/>
    <flow id="f_95" begin="900.00" from="576780820#1.55" to="594458434" end="1800.00" vehsPerHour="240.00"/>
    <flow id="f_96" begin="900.00" from="594805183#0" to="514391101#1" end="1800.00" vehsPerHour="280.00"/>
    <flow id="f_97" begin="900.00" from="-514391101#2.33" to="-594805183#1" end="1800.00" vehsPerHour="150.00"/>

    <flow id="f_137" begin="900.00" from="-514391101#2.33" to="578410814#5" via="514391102 4350454" end="1800.00" vehsPerHour="160.00"/>
    <flow id="f_138" begin="900.00" from="576780820#1.55" to="504565897#4" via="4350454 831638481#1" end="1800.00" vehsPerHour="140.00"/>
    <flow id="f_139" begin="900.00" from="-578410814#7.241" to="4856249#7" via="831638481#1 831638481#3" end="1800.00" vehsPerHour="120.00"/>
    <flow id="f_140" begin="900.00" from="674359419#0" to="595988776#5" via="831638481#3 673029536#3" end="1800.00" vehsPerHour="120.00"/>
    <flow id="f_141" begin="900.00" from="-4856249#8.663" to="-578316484#0" via="673029536#3 673029536#6" end="1800.00" vehsPerHour="120.00"/>
    <flow id="f_142" begin="900.00" from="-578316484#2" to="-4856249#5" via="674577847#1 674577847#3" end="1800.00" vehsPerHour="80.00"/>
    <flow id="f_143" begin="900.00" from="595988776#0.556" to="-578410814#3" via="674577847#3 674577847#5 834097579#2" end="1800.00" vehsPerHour="100.00"/>
    <flow id="f_144" begin="900.00" from="4856249#0.1515" to="594458434" via="674577847#5 834097579#2 834097579#5" end="1800.00" vehsPerHour="100.00"/>
    <flow id="f_145" begin="900.00" from="578410814#1" to="-594805183#1" via="834097579#5 331183273#1" end="1800.00" vehsPerHour="100.00"/>

    <flow id="f_4" begin="1800.00" from="571884279#1" to="673029536#8" via="514391102 4350454 831638481#1 831638481#3 673029536#3 673029536#6" end="2700.00" vehsPerHour="260.00"/>
    <flow id="f_5" begin="1800.00" from="4350453#2" to="673029551#1" via="674577847#1 674577847#3 674577847#5 834097579#2 834097579#5 331183273#1" end="2700.00" vehsPerHour="320.00"/>
    <flow id="f_55" begin="1800.00" from="-578316484#2" to="585017417#2" via="674577847#1" end="3600.00" vehsPerHour="260.00"/>
    <flow id="f_56" begin="1800.00" from="595988776#0.556" to="-4856249#5" via="674577847#3" end="3600.00" vehsPerHour="230.00"/>
    <flow id="f_57" begin="1800.00" from="4856249#0.1515" to="674359419#2" via="674577847#5" end="3600.00" vehsPerHour="250.00"/>
    <flow id="f_58" begin="1800.00" from="504565897#0" to="-578410814#3" via="834097579#2" end="3600.00" vehsPerHour="220.00"/>
    <flow id="f_59" begin="1800.00" from="578410814#1" to="594458434" via="834097579#5" end="3600.00" vehsPerHour="140.00"/>
    <flow id="f_60" begin="1800.00" from="594805179#0" to="-594805183#1" via="331183273#1" end="3600.00" vehsPerHour="240.00"/>
    <flow id="f_61" begin="1800.00" from="594805183#0" to="673029551#1" end="3600.00" vehsPerHour="240.00"/>
    <flow id="f_62" begin="1800.00" from="571884279#1" to="514391101#1" end="3600.00" vehsPerHour="180.00"/>
    <flow id="f_63" begin="1800.00" from="-514391101#2.33" to="594458432#0" via="514391102" end="3600.00" vehsPerHour="185.00"/>
    <flow id="f_64" begin="1800.00" from="576780820#1.55" to="578410814#5" via="4350454" end="3600.00" vehsPerHour="210.00"/>
    <flow id="f_65" begin="1800.00" from="-578410814#7.241" to="504565897#4" via="831638481#1" end="3600.00" vehsPerHour="240.00"/>
    <flow id="f_66" begin="1800.00" from="674359419#0" to="4856249#7" via="831638481#3" end="3600.00" vehsPerHour="200.00"/>
    <flow id="f_67" begin="1800.00" from="-4856249#8.663" to="595988776#5" via="673029536#3" end="3600.00" vehsPerHour="235.00"/>
    <flow id="f_68" begin="1800.00" from="585017417#0.578" to="-578316484#0" via="673029536#6" end="3600.00" vehsPerHour="240.00"/>
    <flow id="f_69" begin="1800.00" from="578316484#0.702" to="673029536#8" end="3600.00" vehsPerHour="180.00"/>

    <flow id="f_98" begin="1800.00" from="-578316484#2" to="-578316484#0" end="2700.00" vehsPerHour="170.01"/>
    <flow id="f_99" begin="1800.00" from="578316484#0.702" to="578316484#2" end="2700.00" vehsPerHour="170.01"/>
    <flow id="f_100" begin="1800.00" from="595988776#0.556" to="595988776#5" end="2700.00" vehsPerHour="250.00"/>
    <flow id="f_101" begin="1800.00" from="585017417#0.578" to="585017417#2" end="2700.00" vehsPerHour="220.00"/>
    <flow id="f_102" begin="1800.00" from="4856249#0.1515" to="4856249#7" end="2700.00" vehsPerHour="279.99"/>
    <flow id="f_103" begin="1800.00" from="-4856249#8.663" to="-4856249#5" end="2700.00" vehsPerHour="190.00"/>
    <flow id="f_104" begin="1800.00" from="504565897#0" to="504565897#4" end="2700.00" vehsPerHour="170.01"/>
    <flow id="f_105" begin="1800.00" from="674359419#0" to="674359419#2" end="2700.00" vehsPerHour="200.00"/>
    <flow id="f_106" begin="1800.00" from="578410814#1" to="578410814#5" end="2700.00" vehsPerHour="280.00"/>
    <flow id="f_107" begin="1800.00" from="-578410814#7.241" to="-578410814#3" end="2700.00" vehsPerHour="210.00"/>
    <flow id="f_108" begin="1800.00" from="594805179#0" to="594458432#0" end="2700.00" vehsPerHour="240.00"/>
    <flow id="f_109" begin="1800.00" from="576780820#1.55" to="594458434" end="2700.00" vehsPerHour="240.00"/>
    <flow id="f_110" begin="1800.00" from="594805183#0" to="514391101#1" end="2700.00" vehsPerHour="240.00"/>
    <flow id="f_111" begin="1800.00" from="-514391101#2.33" to="-594805183#1" end="2700.00" vehsPerHour="150.00"/>

    <flow id="f_146" begin="1800.00" from="-578316484#2" to="-4856249#5" via="674577847#1 674577847#3" end="2700.00" vehsPerHour="100.00"/>
    <flow id="f_147" begin="1800.00" from="595988776#0.556" to="-578410814#3" via="674577847#3 674577847#5 834097579#2" end="2700.00" vehsPerHour="100.00"/>
    <flow id="f_148" begin="1800.00" from="4856249#0.1515" to="594458434" via="674577847#5 834097579#2 834097579#5" end="2700.00" vehsPerHour="100.00"/>
    <flow id="f_149" begin="1800.00" from="504565897#0" to="594458434" via="834097579#2 834097579#5" end="2700.00" vehsPerHour="110.00"/>
    <flow id="f_150" begin="1800.00" from="578410814#1" to="-594805183#1" via="834097579#5 331183273#1" end="2700.00" vehsPerHour="120.00"/>
    <flow id="f_151" begin="1800.00" from="-514391101#2.33" to="578410814#5" via="514391102 4350454" end="2700.00" vehsPerHour="150.00"/>
    <flow id="f_152" begin="1800.00" from="576780820#1.55" to="4856249#7" via="4350454 831638481#1 831638481#3" end="2700.00" vehsPerHour="150.00"/>
    <flow id="f_153" begin="1800.00" from="674359419#0" to="-578316484#0" via="831638481#3 673029536#3 673029536#6" end="2700.00" vehsPerHour="150.00"/>

    <flow id="f_6" begin="2700.00" from="571884279#1" to="673029536#8" via="514391102 4350454 831638481#1 831638481#3 673029536#3 673029536#6" end="3600.00" vehsPerHour="270.01"/>
    <flow id="f_7" begin="2700.00" from="4350453#2" to="673029551#1" via="674577847#1 674577847#3 674577847#5 834097579#2 834097579#5 331183273#1" end="3600.00" vehsPerHour="280.00"/>

    <flow id="f_112" begin="2700.00" from="595988776#0.556" to="595988776#5" end="3600.00" vehsPerHour="200.00"/>
    <flow id="f_113" begin="2700.00" from="585017417#0.578" to="585017417#2" end="3600.00" vehsPerHour="270.01"/>
    <flow id="f_114" begin="2700.00" from="4856249#0.1515" to="4856249#7" end="3600.00" vehsPerHour="240.00"/>
    <flow id="f_115" begin="2700.00" from="-4856249#8.663" to="-4856249#5" end="3600.00" vehsPerHour="230.00"/>
    <flow id="f_116" begin="2700.00" from="504565897#0" to="504565897#4" end="3600.00" vehsPerHour="180.00"/>
    <flow id="f_117" begin="2700.00" from="674359419#0" to="674359419#2" end="3600.00" vehsPerHour="240.00"/>
    <flow id="f_118" begin="2700.00" from="578410814#1" to="578410814#5" end="3600.00" vehsPerHour="200.00"/>
    <flow id="f_119" begin="2700.00" from="-578410814#7.241" to="-578410814#3" end="3600.00" vehsPerHour="260.00"/>
    <flow id="f_120" begin="2700.00" from="594805179#0" to="594458432#0" end="3600.00" vehsPerHour="250.00"/>
    <flow id="f_121" begin="2700.00" from="576780820#1.55" to="594458434" end="3600.00" vehsPerHour="120.00"/>
    <flow id="f_122" begin="2700.00" from="594805183#0" to="514391101#1" end="3600.00" vehsPerHour="250.00"/>
    <flow id="f_123" begin="2700.00" from="-514391101#2.33" to="-594805183#1" end="3600.00" vehsPerHour="180.00"/>
    <flow id="f_124" begin="2700.00" from="-578316484#2" to="-578316484#0" end="3600.00" vehsPerHour="180.00"/>
    <flow id="f_125" begin="2700.00" from="578316484#0.702" to="578316484#2" end="3600.00" vehsPerHour="270.01"/>

    <flow id="f_154" begin="2700.00" from="-578316484#2" to="-4856249#5" via="674577847#1 674577847#3" end="3600.00" vehsPerHour="100.00"/>
    <flow id="f_155" begin="2700.00" from="595988776#0.556" to="674359419#2" via="674577847#3 674577847#5" end="3600.00" vehsPerHour="150.00"/>
    <flow id="f_156" begin="2700.00" from="4856249#0.1515" to="594458434" via="674577847#5 834097579#2 834097579#5" end="3600.00" vehsPerHour="150.00"/>
    <flow id="f_157" begin="2700.00" from="504565897#0" to="-594805183#1" via="834097579#2 834097579#5 331183273#1" end="3600.00" vehsPerHour="120.00"/>
    <flow id="f_158" begin="2700.00" from="578410814#1" to="673029551#1" via="834097579#5 331183273#1" end="3600.00" vehsPerHour="120.00"/>
    <flow id="f_159" begin="2700.00" from="-514391101#2.33" to="578410814#5" via="514391102 4350454" end="3600.00" vehsPerHour="120.00"/>
    <flow id="f_160" begin="2700.00" from="576780820#1.55" to="4856249#7" via="4350454 831638481#1 831638481#3" end="3600.00" vehsPerHour="120.00"/>
    <flow id="f_161" begin="2700.00" from="-578410814#7.241" to="4856249#7" via="831638481#1 831638481#3" end="3600.00" vehsPerHour="120.00"/>
    <flow id="f_162" begin="2700.00" from="674359419#0" to="595988776#5" via="831638481#3 673029536#3" end="3600.00" vehsPerHour="120.00"/>
    <flow id="f_163" begin="2700.00" from="-4856249#8.663" to="673029536#8" via="673029536#3 673029536#6" end="3600.00" vehsPerHour="120.00"/>
</routes>
